<?xml version="1.0" encoding="UTF-8"?>
<!-- generated on 2018-06-24 22:58:37.542373 by $Id: random_trips.py 25741 2017-08-30 11:58:01Z behrisch $
  options: ./temp_outputs/Results_0/network_size14/cars_num64
-->
<routes xmlns:xsi="http://www.w3.org/2001/XMLSchema-instance" xsi:noNamespaceSchemaLocation="http://sumo.dlr.de/xsd/routes_file.xsd">
    <trip id="0" depart="0.00" from="-11" to="164"/>
    <trip id="1" depart="0.00" from="-178" to="186"/>
    <trip id="2" depart="1.00" from="-178" to="294"/>
    <trip id="3" depart="1.00" from="-294" to="294"/>
    <trip id="4" depart="1.00" from="-172" to="172"/>
    <trip id="5" depart="1.00" from="-11" to="164"/>
    <trip id="6" depart="1.00" from="-172" to="172"/>
    <trip id="7" depart="3.00" from="-186" to="7"/>
    <trip id="8" depart="4.00" from="-172" to="11"/>
    <trip id="9" depart="4.00" from="-294" to="164"/>
    <trip id="10" depart="4.00" from="-7" to="11"/>
    <trip id="11" depart="5.00" from="-164" to="172"/>
    <trip id="12" depart="5.00" from="-294" to="7"/>
    <trip id="13" depart="5.00" from="-172" to="178"/>
    <trip id="14" depart="6.00" from="-7" to="186"/>
    <trip id="15" depart="6.00" from="-294" to="178"/>
    <trip id="16" depart="6.00" from="-172" to="164"/>
    <trip id="17" depart="7.00" from="-164" to="294"/>
    <trip id="18" depart="8.00" from="-294" to="172"/>
    <trip id="19" depart="8.00" from="-172" to="186"/>
    <trip id="20" depart="8.00" from="-294" to="7"/>
    <trip id="21" depart="9.00" from="-11" to="164"/>
    <trip id="22" depart="11.00" from="-11" to="186"/>
    <trip id="23" depart="12.00" from="-178" to="11"/>
    <trip id="24" depart="14.00" from="-7" to="186"/>
    <trip id="25" depart="16.00" from="-294" to="172"/>
    <trip id="26" depart="16.00" from="-178" to="164"/>
    <trip id="27" depart="17.00" from="-11" to="178"/>
    <trip id="28" depart="18.00" from="-294" to="11"/>
    <trip id="29" depart="18.00" from="-178" to="172"/>
    <trip id="30" depart="19.00" from="-186" to="172"/>
    <trip id="31" depart="20.00" from="-164" to="294"/>
    <trip id="32" depart="20.00" from="-7" to="11"/>
    <trip id="33" depart="20.00" from="-186" to="11"/>
    <trip id="34" depart="20.00" from="-164" to="294"/>
    <trip id="35" depart="22.00" from="-178" to="11"/>
    <trip id="36" depart="25.00" from="-294" to="164"/>
    <trip id="37" depart="27.00" from="-294" to="7"/>
    <trip id="38" depart="27.00" from="-172" to="186"/>
    <trip id="39" depart="28.00" from="-294" to="294"/>
    <trip id="40" depart="29.00" from="-294" to="186"/>
    <trip id="41" depart="30.00" from="-172" to="294"/>
    <trip id="42" depart="31.00" from="-7" to="164"/>
    <trip id="43" depart="32.00" from="-164" to="294"/>
    <trip id="44" depart="35.00" from="-11" to="294"/>
    <trip id="45" depart="37.00" from="-172" to="294"/>
    <trip id="46" depart="37.00" from="-186" to="164"/>
    <trip id="47" depart="38.00" from="-172" to="172"/>
    <trip id="48" depart="39.00" from="-172" to="164"/>
    <trip id="49" depart="39.00" from="-7" to="178"/>
    <trip id="50" depart="40.00" from="-186" to="172"/>
    <trip id="51" depart="41.00" from="-7" to="172"/>
    <trip id="52" depart="42.00" from="-164" to="294"/>
    <trip id="53" depart="42.00" from="-178" to="186"/>
    <trip id="54" depart="45.00" from="-172" to="186"/>
    <trip id="55" depart="45.00" from="-172" to="172"/>
    <trip id="56" depart="46.00" from="-164" to="7"/>
    <trip id="57" depart="46.00" from="-186" to="172"/>
    <trip id="58" depart="48.00" from="-11" to="178"/>
    <trip id="59" depart="48.00" from="-164" to="164"/>
    <trip id="60" depart="48.00" from="-186" to="186"/>
    <trip id="61" depart="49.00" from="-294" to="178"/>
    <trip id="62" depart="49.00" from="-186" to="7"/>
</routes>
