<?xml version="1.0" encoding="UTF-8"?>
<!-- generated on 2018-06-24 18:57:13.909851 by $Id: random_trips.py 25741 2017-08-30 11:58:01Z behrisch $
  options: ./temp_outputs//Results_0/network_size10/cars_num100
-->
<routes xmlns:xsi="http://www.w3.org/2001/XMLSchema-instance" xsi:noNamespaceSchemaLocation="http://sumo.dlr.de/xsd/routes_file.xsd">
    <trip id="0" depart="0.00" from="-175" to="63"/>
    <trip id="1" depart="3.00" from="-11" to="175"/>
    <trip id="2" depart="3.00" from="-179" to="7"/>
    <trip id="3" depart="3.00" from="-179" to="25"/>
    <trip id="4" depart="3.00" from="-179" to="175"/>
    <trip id="5" depart="3.00" from="-203" to="11"/>
    <trip id="6" depart="5.00" from="-179" to="175"/>
    <trip id="7" depart="7.00" from="-25" to="25"/>
    <trip id="8" depart="7.00" from="-25" to="63"/>
    <trip id="9" depart="7.00" from="-179" to="179"/>
    <trip id="10" depart="8.00" from="-179" to="179"/>
    <trip id="11" depart="10.00" from="-63" to="63"/>
    <trip id="12" depart="10.00" from="-70" to="11"/>
    <trip id="13" depart="11.00" from="-11" to="175"/>
    <trip id="14" depart="11.00" from="-25" to="70"/>
    <trip id="15" depart="11.00" from="-179" to="203"/>
    <trip id="16" depart="12.00" from="-25" to="203"/>
    <trip id="17" depart="12.00" from="-11" to="175"/>
    <trip id="18" depart="12.00" from="-203" to="11"/>
    <trip id="19" depart="12.00" from="-11" to="203"/>
    <trip id="20" depart="14.00" from="-25" to="70"/>
    <trip id="21" depart="15.00" from="-11" to="25"/>
    <trip id="22" depart="15.00" from="-70" to="70"/>
    <trip id="23" depart="15.00" from="-7" to="25"/>
    <trip id="24" depart="17.00" from="-175" to="63"/>
    <trip id="25" depart="18.00" from="-25" to="179"/>
    <trip id="26" depart="18.00" from="-179" to="179"/>
    <trip id="27" depart="19.00" from="-175" to="175"/>
    <trip id="28" depart="19.00" from="-70" to="11"/>
    <trip id="29" depart="21.00" from="-7" to="175"/>
    <trip id="30" depart="21.00" from="-25" to="25"/>
    <trip id="31" depart="21.00" from="-7" to="175"/>
    <trip id="32" depart="22.00" from="-70" to="11"/>
    <trip id="33" depart="22.00" from="-70" to="179"/>
    <trip id="34" depart="22.00" from="-7" to="7"/>
    <trip id="35" depart="22.00" from="-179" to="11"/>
    <trip id="36" depart="24.00" from="-70" to="70"/>
    <trip id="37" depart="24.00" from="-70" to="203"/>
    <trip id="38" depart="25.00" from="-203" to="11"/>
    <trip id="39" depart="26.00" from="-203" to="203"/>
    <trip id="40" depart="27.00" from="-175" to="7"/>
    <trip id="41" depart="27.00" from="-70" to="70"/>
    <trip id="42" depart="28.00" from="-7" to="7"/>
    <trip id="43" depart="28.00" from="-63" to="11"/>
    <trip id="44" depart="28.00" from="-7" to="11"/>
    <trip id="45" depart="29.00" from="-175" to="70"/>
    <trip id="46" depart="29.00" from="-7" to="70"/>
    <trip id="47" depart="31.00" from="-70" to="179"/>
    <trip id="48" depart="31.00" from="-11" to="7"/>
    <trip id="49" depart="32.00" from="-11" to="179"/>
    <trip id="50" depart="32.00" from="-7" to="63"/>
    <trip id="51" depart="34.00" from="-70" to="179"/>
    <trip id="52" depart="34.00" from="-203" to="11"/>
    <trip id="53" depart="35.00" from="-70" to="179"/>
    <trip id="54" depart="36.00" from="-7" to="203"/>
    <trip id="55" depart="37.00" from="-7" to="203"/>
    <trip id="56" depart="38.00" from="-25" to="70"/>
    <trip id="57" depart="39.00" from="-203" to="11"/>
    <trip id="58" depart="41.00" from="-7" to="25"/>
    <trip id="59" depart="42.00" from="-7" to="7"/>
    <trip id="60" depart="43.00" from="-63" to="70"/>
    <trip id="61" depart="44.00" from="-11" to="7"/>
    <trip id="62" depart="45.00" from="-7" to="175"/>
    <trip id="63" depart="46.00" from="-179" to="11"/>
    <trip id="64" depart="46.00" from="-25" to="203"/>
    <trip id="65" depart="48.00" from="-70" to="203"/>
    <trip id="66" depart="51.00" from="-203" to="203"/>
    <trip id="67" depart="52.00" from="-63" to="63"/>
    <trip id="68" depart="52.00" from="-7" to="7"/>
    <trip id="69" depart="54.00" from="-63" to="25"/>
    <trip id="70" depart="54.00" from="-11" to="7"/>
    <trip id="71" depart="55.00" from="-175" to="63"/>
    <trip id="72" depart="57.00" from="-11" to="175"/>
    <trip id="73" depart="57.00" from="-70" to="175"/>
    <trip id="74" depart="58.00" from="-175" to="11"/>
    <trip id="75" depart="58.00" from="-11" to="25"/>
    <trip id="76" depart="59.00" from="-63" to="11"/>
    <trip id="77" depart="59.00" from="-63" to="203"/>
    <trip id="78" depart="60.00" from="-203" to="70"/>
    <trip id="79" depart="61.00" from="-11" to="203"/>
    <trip id="80" depart="61.00" from="-70" to="63"/>
    <trip id="81" depart="61.00" from="-175" to="25"/>
    <trip id="82" depart="62.00" from="-70" to="175"/>
    <trip id="83" depart="63.00" from="-70" to="25"/>
    <trip id="84" depart="63.00" from="-179" to="63"/>
    <trip id="85" depart="64.00" from="-175" to="179"/>
    <trip id="86" depart="64.00" from="-70" to="63"/>
    <trip id="87" depart="65.00" from="-25" to="175"/>
    <trip id="88" depart="66.00" from="-63" to="179"/>
    <trip id="89" depart="66.00" from="-25" to="70"/>
    <trip id="90" depart="66.00" from="-179" to="25"/>
    <trip id="91" depart="67.00" from="-179" to="203"/>
    <trip id="92" depart="68.00" from="-7" to="63"/>
    <trip id="93" depart="68.00" from="-63" to="25"/>
    <trip id="94" depart="69.00" from="-203" to="7"/>
    <trip id="95" depart="69.00" from="-63" to="7"/>
    <trip id="96" depart="72.00" from="-203" to="63"/>
    <trip id="97" depart="72.00" from="-203" to="203"/>
    <trip id="98" depart="75.00" from="-11" to="175"/>
    <trip id="99" depart="76.00" from="-179" to="11"/>
    <trip id="100" depart="76.00" from="-63" to="203"/>
    <trip id="101" depart="76.00" from="-175" to="25"/>
</routes>
