<?xml version="1.0" encoding="UTF-8"?>
<!-- generated on 2018-06-24 17:30:48.076648 by $Id: random_trips.py 25741 2017-08-30 11:58:01Z behrisch $
  options: ./temp_outputs//Results_0/network_size5/cars_num98
-->
<routes xmlns:xsi="http://www.w3.org/2001/XMLSchema-instance" xsi:noNamespaceSchemaLocation="http://sumo.dlr.de/xsd/routes_file.xsd">
    <trip id="0" depart="3.00" from="-63" to="19"/>
    <trip id="1" depart="8.00" from="-63" to="25"/>
    <trip id="2" depart="8.00" from="-11" to="19"/>
    <trip id="3" depart="8.00" from="-11" to="7"/>
    <trip id="4" depart="9.00" from="-63" to="63"/>
    <trip id="5" depart="9.00" from="-19" to="63"/>
    <trip id="6" depart="10.00" from="-25" to="63"/>
    <trip id="7" depart="10.00" from="-7" to="19"/>
    <trip id="8" depart="11.00" from="-19" to="7"/>
    <trip id="9" depart="11.00" from="-19" to="19"/>
    <trip id="10" depart="12.00" from="-63" to="63"/>
    <trip id="11" depart="12.00" from="-19" to="11"/>
    <trip id="12" depart="14.00" from="-19" to="11"/>
    <trip id="13" depart="14.00" from="-63" to="11"/>
    <trip id="14" depart="14.00" from="-25" to="25"/>
    <trip id="15" depart="15.00" from="-19" to="19"/>
    <trip id="16" depart="15.00" from="-11" to="11"/>
    <trip id="17" depart="16.00" from="-11" to="19"/>
    <trip id="18" depart="17.00" from="-11" to="11"/>
    <trip id="19" depart="17.00" from="-25" to="19"/>
    <trip id="20" depart="17.00" from="-25" to="11"/>
    <trip id="21" depart="18.00" from="-63" to="63"/>
    <trip id="22" depart="18.00" from="-11" to="63"/>
    <trip id="23" depart="19.00" from="-11" to="63"/>
    <trip id="24" depart="19.00" from="-7" to="11"/>
    <trip id="25" depart="19.00" from="-25" to="19"/>
    <trip id="26" depart="22.00" from="-25" to="11"/>
    <trip id="27" depart="22.00" from="-63" to="7"/>
    <trip id="28" depart="24.00" from="-11" to="63"/>
    <trip id="29" depart="24.00" from="-63" to="19"/>
    <trip id="30" depart="24.00" from="-19" to="19"/>
    <trip id="31" depart="24.00" from="-25" to="63"/>
    <trip id="32" depart="24.00" from="-63" to="19"/>
    <trip id="33" depart="25.00" from="-25" to="19"/>
    <trip id="34" depart="25.00" from="-63" to="19"/>
    <trip id="35" depart="25.00" from="-25" to="7"/>
    <trip id="36" depart="25.00" from="-11" to="63"/>
    <trip id="37" depart="25.00" from="-7" to="11"/>
    <trip id="38" depart="26.00" from="-19" to="7"/>
    <trip id="39" depart="31.00" from="-63" to="7"/>
    <trip id="40" depart="31.00" from="-25" to="11"/>
    <trip id="41" depart="32.00" from="-7" to="19"/>
    <trip id="42" depart="34.00" from="-19" to="11"/>
    <trip id="43" depart="35.00" from="-19" to="7"/>
    <trip id="44" depart="35.00" from="-7" to="11"/>
    <trip id="45" depart="36.00" from="-19" to="63"/>
    <trip id="46" depart="37.00" from="-63" to="11"/>
    <trip id="47" depart="37.00" from="-19" to="11"/>
    <trip id="48" depart="38.00" from="-25" to="19"/>
    <trip id="49" depart="39.00" from="-7" to="25"/>
    <trip id="50" depart="39.00" from="-11" to="19"/>
    <trip id="51" depart="40.00" from="-19" to="19"/>
    <trip id="52" depart="40.00" from="-7" to="7"/>
    <trip id="53" depart="40.00" from="-63" to="19"/>
    <trip id="54" depart="42.00" from="-7" to="63"/>
    <trip id="55" depart="42.00" from="-11" to="11"/>
    <trip id="56" depart="44.00" from="-11" to="19"/>
    <trip id="57" depart="46.00" from="-11" to="25"/>
    <trip id="58" depart="46.00" from="-63" to="63"/>
    <trip id="59" depart="47.00" from="-63" to="25"/>
    <trip id="60" depart="47.00" from="-19" to="7"/>
    <trip id="61" depart="48.00" from="-19" to="25"/>
    <trip id="62" depart="48.00" from="-7" to="63"/>
    <trip id="63" depart="49.00" from="-25" to="11"/>
    <trip id="64" depart="51.00" from="-25" to="11"/>
    <trip id="65" depart="51.00" from="-25" to="63"/>
    <trip id="66" depart="51.00" from="-7" to="7"/>
    <trip id="67" depart="52.00" from="-11" to="19"/>
    <trip id="68" depart="52.00" from="-19" to="63"/>
    <trip id="69" depart="53.00" from="-11" to="11"/>
    <trip id="70" depart="54.00" from="-25" to="11"/>
    <trip id="71" depart="55.00" from="-25" to="25"/>
    <trip id="72" depart="56.00" from="-7" to="7"/>
    <trip id="73" depart="56.00" from="-7" to="25"/>
    <trip id="74" depart="56.00" from="-7" to="25"/>
    <trip id="75" depart="57.00" from="-11" to="7"/>
    <trip id="76" depart="57.00" from="-19" to="19"/>
    <trip id="77" depart="59.00" from="-25" to="19"/>
    <trip id="78" depart="59.00" from="-7" to="19"/>
    <trip id="79" depart="60.00" from="-63" to="11"/>
    <trip id="80" depart="61.00" from="-11" to="7"/>
    <trip id="81" depart="61.00" from="-25" to="19"/>
    <trip id="82" depart="61.00" from="-63" to="63"/>
    <trip id="83" depart="62.00" from="-19" to="19"/>
    <trip id="84" depart="62.00" from="-63" to="25"/>
    <trip id="85" depart="63.00" from="-63" to="7"/>
    <trip id="86" depart="63.00" from="-25" to="25"/>
    <trip id="87" depart="65.00" from="-11" to="25"/>
    <trip id="88" depart="66.00" from="-11" to="7"/>
    <trip id="89" depart="66.00" from="-7" to="19"/>
    <trip id="90" depart="67.00" from="-11" to="25"/>
    <trip id="91" depart="67.00" from="-63" to="25"/>
    <trip id="92" depart="67.00" from="-25" to="7"/>
    <trip id="93" depart="70.00" from="-25" to="25"/>
    <trip id="94" depart="71.00" from="-11" to="63"/>
    <trip id="95" depart="72.00" from="-19" to="7"/>
    <trip id="96" depart="72.00" from="-19" to="19"/>
    <trip id="97" depart="72.00" from="-11" to="63"/>
    <trip id="98" depart="72.00" from="-63" to="11"/>
    <trip id="99" depart="72.00" from="-19" to="25"/>
    <trip id="100" depart="75.00" from="-11" to="7"/>
</routes>
