<?xml version="1.0" encoding="UTF-8"?>

<!-- generated on Wed Jan 17 18:14:47 2018 by SUMO netgenerate Version 0.30.0
<?xml version="1.0" encoding="UTF-8"?>

<configuration xmlns:xsi="http://www.w3.org/2001/XMLSchema-instance" xsi:noNamespaceSchemaLocation="http://sumo.dlr.de/xsd/netgenerateConfiguration.xsd">

    <random_network>
        <rand value="true"/>
        <rand.iterations value="30"/>
        <rand.neighbor-dist5 value="0"/>
        <rand.neighbor-dist6 value="0"/>
    </random_network>

    <output>
        <output-file value="../examples/data/city/city.net.xml"/>
    </output>

    <tls_building>
        <tls.guess value="true"/>
        <tls.left-green.time value="0"/>
    </tls_building>

    <processing>
        <no-turnarounds value="true"/>
        <no-left-connections value="true"/>
    </processing>

    <building_defaults>
        <default.lanenumber value="1"/>
    </building_defaults>

</configuration>
-->

<net version="0.27" xmlns:xsi="http://www.w3.org/2001/XMLSchema-instance" xsi:noNamespaceSchemaLocation="http://sumo.dlr.de/xsd/net_file.xsd">

    <location netOffset="586.96,718.11" convBoundary="0.00,0.00,1183.65,1118.95" origBoundary="-586.96,-718.11,596.68,400.84" projParameter="!"/>

    <edge id=":1_0" function="internal">
        <lane id=":1_0_0" index="0" speed="13.90" length="5.38" shape="585.41,723.98 585.16,722.45 584.50,721.52 583.40,721.17 581.88,721.42"/>
    </edge>
    <edge id=":1_1" function="internal">
        <lane id=":1_1_0" index="0" speed="13.90" length="10.00" shape="585.41,723.98 585.36,721.01 585.26,718.98 584.95,716.97 584.30,714.08"/>
    </edge>
    <edge id=":1_2" function="internal">
        <lane id=":1_2_0" index="0" speed="13.90" length="5.81" shape="591.83,719.95 590.44,720.15 589.45,720.88 588.88,722.14 588.71,723.93"/>
    </edge>
    <edge id=":1_3" function="internal">
        <lane id=":1_3_0" index="0" speed="13.90" length="10.15" shape="591.83,719.95 588.84,719.89 586.77,720.06 584.74,720.54 581.88,721.42"/>
    </edge>
    <edge id=":1_4" function="internal">
        <lane id=":1_4_0" index="0" speed="13.90" length="6.03" shape="587.51,713.31 588.07,714.72 589.00,715.75 590.30,716.39 591.95,716.65"/>
    </edge>
    <edge id=":1_5" function="internal">
        <lane id=":1_5_0" index="0" speed="13.90" length="10.72" shape="587.51,713.31 588.18,716.32 588.52,718.57 588.65,720.84 588.71,723.93"/>
    </edge>
    <edge id=":1_6" function="internal">
        <lane id=":1_6_0" index="0" speed="13.90" length="6.02" shape="580.90,718.27 582.65,717.53 583.80,716.58 584.35,715.43 584.30,714.08"/>
    </edge>
    <edge id=":1_7" function="internal">
        <lane id=":1_7_0" index="0" speed="13.90" length="11.25" shape="580.90,718.27 583.94,717.36 586.34,716.83 588.79,716.61 591.95,716.65"/>
    </edge>
    <edge id=":104_0" function="internal">
        <lane id=":104_0_0" index="0" speed="13.90" length="8.55" shape="287.05,223.00 283.97,223.14 281.66,223.60 280.11,224.39 279.33,225.51"/>
    </edge>
    <edge id=":104_1" function="internal">
        <lane id=":104_1_0" index="0" speed="13.90" length="6.20" shape="285.27,215.92 284.27,217.56 284.24,218.74 285.18,219.45 287.08,219.70"/>
    </edge>
    <edge id=":104_2" function="internal">
        <lane id=":104_2_0" index="0" speed="13.90" length="11.39" shape="285.27,215.92 283.24,218.40 281.69,220.40 280.45,222.55 279.33,225.51"/>
    </edge>
    <edge id=":104_3" function="internal">
        <lane id=":104_3_0" index="0" speed="13.90" length="12.59" shape="276.18,224.53 277.38,221.40 278.83,218.88 280.57,216.52 282.69,213.87"/>
    </edge>
    <edge id=":110_0" function="internal">
        <lane id=":110_0_0" index="0" speed="13.90" length="8.10" shape="40.47,494.80 37.61,494.10 35.46,494.06 34.03,494.66 33.32,495.92"/>
    </edge>
    <edge id=":110_1" function="internal">
        <lane id=":110_1_0" index="0" speed="13.90" length="6.35" shape="40.96,487.53 39.40,488.77 38.97,489.87 39.66,490.83 41.47,491.66"/>
    </edge>
    <edge id=":110_2" function="internal">
        <lane id=":110_2_0" index="0" speed="13.90" length="11.62" shape="40.96,487.53 37.97,489.61 35.70,491.70 34.15,493.80 33.32,495.92"/>
    </edge>
    <edge id=":110_3" function="internal">
        <lane id=":110_3_0" index="0" speed="13.90" length="14.25" shape="30.10,495.21 31.13,492.45 33.00,489.78 35.70,487.20 39.22,484.72"/>
    </edge>
    <edge id=":119_0" function="internal">
        <lane id=":119_0_0" index="0" speed="13.90" length="14.18" shape="1183.26,912.23 1183.94,916.67 1183.00,919.09 1180.43,919.48 1176.24,917.85"/>
    </edge>
    <edge id=":119_1" function="internal">
        <lane id=":119_1_0" index="0" speed="13.90" length="4.63" shape="1177.79,914.94 1179.15,915.47 1179.99,915.34 1180.30,914.55 1180.08,913.10"/>
    </edge>
    <edge id=":12_0" function="internal">
        <lane id=":12_0_0" index="0" speed="13.90" length="14.55" shape="665.01,549.10 662.57,546.37 659.78,544.13 656.67,542.30 653.29,540.78"/>
    </edge>
    <edge id=":12_1" function="internal">
        <lane id=":12_1_0" index="0" speed="13.90" length="16.21" shape="665.01,549.10 662.82,545.83 660.79,542.20 658.97,538.45 657.45,534.81"/>
    </edge>
    <edge id=":12_2" function="internal">
        <lane id=":12_2_0" index="0" speed="13.90" length="5.76" shape="669.30,543.17 667.65,543.65 666.82,544.47 666.83,545.63 667.66,547.13"/>
    </edge>
    <edge id=":12_3" function="internal">
        <lane id=":12_3_0" index="0" speed="13.90" length="16.33" shape="669.30,543.17 665.36,543.37 661.18,542.94 657.06,542.04 653.29,540.78"/>
    </edge>
    <edge id=":12_4" function="internal">
        <lane id=":12_4_0" index="0" speed="13.90" length="11.32" shape="660.53,533.63 662.08,536.68 663.97,538.75 666.22,539.82 668.82,539.91"/>
    </edge>
    <edge id=":12_5" function="internal">
        <lane id=":12_5_0" index="0" speed="13.90" length="15.31" shape="660.53,533.63 661.99,537.14 663.65,540.62 665.54,543.99 667.66,547.13"/>
    </edge>
    <edge id=":12_6" function="internal">
        <lane id=":12_6_0" index="0" speed="13.90" length="6.48" shape="654.51,537.72 656.49,538.25 657.64,537.94 657.96,536.80 657.45,534.81"/>
    </edge>
    <edge id=":12_7" function="internal">
        <lane id=":12_7_0" index="0" speed="13.90" length="14.64" shape="654.51,537.72 658.01,538.94 661.55,539.78 665.15,540.13 668.82,539.91"/>
    </edge>
    <edge id=":14_0" function="internal">
        <lane id=":14_0_0" index="0" speed="13.90" length="7.59" shape="473.65,362.40 472.45,360.06 471.22,358.41 469.97,357.44 468.68,357.16"/>
    </edge>
    <edge id=":14_1" function="internal">
        <lane id=":14_1_0" index="0" speed="13.90" length="5.78" shape="479.15,357.58 477.43,357.66 476.44,358.27 476.18,359.41 476.67,361.07"/>
    </edge>
    <edge id=":14_2" function="internal">
        <lane id=":14_2_0" index="0" speed="13.90" length="10.49" shape="479.15,357.58 476.12,357.30 473.92,357.12 471.73,357.07 468.68,357.16"/>
    </edge>
    <edge id=":14_3" function="internal">
        <lane id=":14_3_0" index="0" speed="13.90" length="10.92" shape="468.53,353.86 471.64,353.77 473.99,353.83 476.33,354.01 479.43,354.29"/>
    </edge>
    <edge id=":144_0" function="internal">
        <lane id=":144_0_0" index="0" speed="13.90" length="3.37" shape="422.93,45.83 422.33,45.06 421.69,44.77 421.01,44.96 420.30,45.64"/>
    </edge>
    <edge id=":144_1" function="internal">
        <lane id=":144_1_0" index="0" speed="13.90" length="10.33" shape="417.71,43.59 419.89,41.52 421.96,40.92 423.93,41.81 425.79,44.17"/>
    </edge>
    <edge id=":18_0" function="internal">
        <lane id=":18_0_0" index="0" speed="13.90" length="8.07" shape="981.34,656.70 980.07,656.15 978.35,656.09 976.18,656.51 973.58,657.41"/>
    </edge>
    <edge id=":18_1" function="internal">
        <lane id=":18_1_0" index="0" speed="13.90" length="10.64" shape="981.34,656.70 972.98,650.11"/>
    </edge>
    <edge id=":18_2" function="internal">
        <lane id=":18_2_0" index="0" speed="13.90" length="7.61" shape="982.42,646.81 982.05,649.41 982.08,651.49 982.50,653.03 983.31,654.05"/>
    </edge>
    <edge id=":18_3" function="internal">
        <lane id=":18_3_0" index="0" speed="13.90" length="14.42" shape="982.42,646.81 981.31,650.34 979.46,653.28 976.88,655.64 973.58,657.41"/>
    </edge>
    <edge id=":18_4" function="internal">
        <lane id=":18_4_0" index="0" speed="13.90" length="5.83" shape="975.06,647.55 976.56,648.48 977.75,648.55 978.63,647.78 979.19,646.17"/>
    </edge>
    <edge id=":18_5" function="internal">
        <lane id=":18_5_0" index="0" speed="13.90" length="10.50" shape="975.06,647.55 983.31,654.05"/>
    </edge>
    <edge id=":18_6" function="internal">
        <lane id=":18_6_0" index="0" speed="13.90" length="5.79" shape="972.34,654.35 973.85,653.49 974.46,652.50 974.17,651.38 972.98,650.11"/>
    </edge>
    <edge id=":18_7" function="internal">
        <lane id=":18_7_0" index="0" speed="13.90" length="11.13" shape="972.34,654.35 974.90,652.98 976.89,651.16 978.32,648.89 979.19,646.17"/>
    </edge>
    <edge id=":2_0" function="internal">
        <lane id=":2_0_0" index="0" speed="13.90" length="10.29" shape="532.62,498.86 531.96,495.91 531.51,493.82 530.89,491.79 529.76,489.00"/>
    </edge>
    <edge id=":2_1" function="internal">
        <lane id=":2_1_0" index="0" speed="13.90" length="6.06" shape="539.02,495.32 537.22,494.86 536.09,495.17 535.63,496.24 535.83,498.09"/>
    </edge>
    <edge id=":2_2" function="internal">
        <lane id=":2_2_0" index="0" speed="13.90" length="9.20" shape="532.77,487.67 534.12,489.85 535.65,490.86 537.60,491.42 540.24,492.26"/>
    </edge>
    <edge id=":24_0" function="internal">
        <lane id=":24_0_0" index="0" speed="13.90" length="6.90" shape="916.95,911.38 915.55,910.33 914.02,909.82 912.36,909.86 910.58,910.45"/>
    </edge>
    <edge id=":24_1" function="internal">
        <lane id=":24_1_0" index="0" speed="13.90" length="10.60" shape="916.95,911.38 914.80,909.20 913.33,907.51 912.01,905.70 910.34,903.13"/>
    </edge>
    <edge id=":24_2" function="internal">
        <lane id=":24_2_0" index="0" speed="13.90" length="5.42" shape="919.69,904.35 918.66,905.56 918.25,906.74 918.45,907.90 919.27,909.03"/>
    </edge>
    <edge id=":24_3" function="internal">
        <lane id=":24_3_0" index="0" speed="13.90" length="11.03" shape="919.69,904.35 917.35,906.43 915.45,907.87 913.40,909.08 910.58,910.45"/>
    </edge>
    <edge id=":24_4" function="internal">
        <lane id=":24_4_0" index="0" speed="13.90" length="5.22" shape="913.12,901.35 914.08,902.46 915.12,902.92 916.25,902.74 917.46,901.91"/>
    </edge>
    <edge id=":24_5" function="internal">
        <lane id=":24_5_0" index="0" speed="13.90" length="9.88" shape="913.12,901.35 914.71,903.81 915.88,905.45 917.21,906.95 919.27,909.03"/>
    </edge>
    <edge id=":24_6" function="internal">
        <lane id=":24_6_0" index="0" speed="13.90" length="5.27" shape="909.19,907.45 910.39,906.66 910.99,905.67 910.97,904.50 910.34,903.13"/>
    </edge>
    <edge id=":24_7" function="internal">
        <lane id=":24_7_0" index="0" speed="13.90" length="10.03" shape="909.19,907.45 911.87,906.18 913.64,905.16 915.25,903.90 917.46,901.91"/>
    </edge>
    <edge id=":37_0" function="internal">
        <lane id=":37_0_0" index="0" speed="13.90" length="7.81" shape="593.97,369.61 593.20,368.56 591.79,367.73 589.73,367.13 587.03,366.76"/>
    </edge>
    <edge id=":37_1" function="internal">
        <lane id=":37_1_0" index="0" speed="13.90" length="11.81" shape="593.97,369.61 589.21,358.80"/>
    </edge>
    <edge id=":37_2" function="internal">
        <lane id=":37_2_0" index="0" speed="13.90" length="10.02" shape="599.36,358.86 597.97,362.06 597.12,364.72 596.82,366.84 597.05,368.43"/>
    </edge>
    <edge id=":37_3" function="internal">
        <lane id=":37_3_0" index="0" speed="13.90" length="15.66" shape="599.36,358.86 597.04,362.58 594.22,365.14 590.88,366.53 587.03,366.76"/>
    </edge>
    <edge id=":37_4" function="internal">
        <lane id=":37_4_0" index="0" speed="13.90" length="6.28" shape="592.21,357.41 593.24,359.08 594.28,359.64 595.33,359.09 596.38,357.44"/>
    </edge>
    <edge id=":37_5" function="internal">
        <lane id=":37_5_0" index="0" speed="13.90" length="12.03" shape="592.21,357.41 597.05,368.43"/>
    </edge>
    <edge id=":37_6" function="internal">
        <lane id=":37_6_0" index="0" speed="13.90" length="6.75" shape="587.31,363.47 589.02,363.32 589.91,362.49 589.97,360.98 589.21,358.80"/>
    </edge>
    <edge id=":37_7" function="internal">
        <lane id=":37_7_0" index="0" speed="13.90" length="11.65" shape="587.31,363.47 590.10,363.29 592.55,362.22 594.64,360.27 596.38,357.44"/>
    </edge>
    <edge id=":6_0" function="internal">
        <lane id=":6_0_0" index="0" speed="13.90" length="5.67" shape="591.58,931.92 590.30,931.18 589.37,930.19 588.81,928.96 588.60,927.49"/>
    </edge>
    <edge id=":6_1" function="internal">
        <lane id=":6_1_0" index="0" speed="13.90" length="1.85" shape="591.90,927.44 591.97,927.92 592.15,928.32 592.46,928.64 592.87,928.89"/>
    </edge>
    <edge id=":63_0" function="internal">
        <lane id=":63_0_0" index="0" speed="13.90" length="8.66" shape="820.19,526.15 817.72,524.28 815.65,522.99 813.96,522.28 812.68,522.14"/>
    </edge>
    <edge id=":63_1" function="internal">
        <lane id=":63_1_0" index="0" speed="13.90" length="5.99" shape="823.08,519.43 821.41,520.19 820.72,521.13 821.01,522.27 822.27,523.59"/>
    </edge>
    <edge id=":63_2" function="internal">
        <lane id=":63_2_0" index="0" speed="13.90" length="10.26" shape="812.20,518.88 815.16,518.37 817.22,517.86 819.24,517.20 822.11,516.28"/>
    </edge>
    <edge id=":68_0" function="internal">
        <lane id=":68_0_0" index="0" speed="13.90" length="7.95" shape="240.05,367.68 237.68,367.70 236.01,367.72 234.45,368.08 232.40,369.15"/>
    </edge>
    <edge id=":68_1" function="internal">
        <lane id=":68_1_0" index="0" speed="13.90" length="5.48" shape="237.24,360.95 236.98,362.52 237.34,363.62 238.31,364.24 239.89,364.39"/>
    </edge>
    <edge id=":68_2" function="internal">
        <lane id=":68_2_0" index="0" speed="13.90" length="7.53" shape="230.67,366.34 232.35,365.03 233.13,363.74 233.53,362.16 234.09,359.97"/>
    </edge>
    <edge id=":76_0" function="internal">
        <lane id=":76_0_0" index="0" speed="13.90" length="7.28" shape="1143.82,780.55 1143.11,779.31 1141.81,778.70 1139.93,778.73 1137.48,779.38"/>
    </edge>
    <edge id=":76_1" function="internal">
        <lane id=":76_1_0" index="0" speed="13.90" length="11.19" shape="1143.82,780.55 1142.76,777.61 1141.42,775.62 1139.58,773.99 1137.00,772.09"/>
    </edge>
    <edge id=":76_2" function="internal">
        <lane id=":76_2_0" index="0" speed="13.90" length="13.30" shape="1138.97,769.43 1141.73,771.61 1144.00,773.86 1145.76,776.46 1147.00,779.67"/>
    </edge>
    <edge id=":76_3" function="internal">
        <lane id=":76_3_0" index="0" speed="13.90" length="6.00" shape="1136.37,776.27 1138.01,775.45 1138.65,774.47 1138.32,773.35 1137.00,772.09"/>
    </edge>
    <edge id=":78_0" function="internal">
        <lane id=":78_0_0" index="0" speed="13.90" length="5.83" shape="1022.32,463.70 1020.86,462.73 1019.70,462.64 1018.84,463.42 1018.28,465.08"/>
    </edge>
    <edge id=":78_1" function="internal">
        <lane id=":78_1_0" index="0" speed="13.90" length="11.18" shape="1022.32,463.70 1019.91,462.02 1017.38,461.07 1014.70,460.85 1011.90,461.37"/>
    </edge>
    <edge id=":78_2" function="internal">
        <lane id=":78_2_0" index="0" speed="13.90" length="14.55" shape="1010.93,458.21 1014.59,457.53 1018.07,457.81 1021.38,459.04 1024.50,461.22"/>
    </edge>
    <edge id=":78_3" function="internal">
        <lane id=":78_3_0" index="0" speed="13.90" length="5.90" shape="1015.04,464.44 1015.16,462.63 1014.68,461.52 1013.59,461.10 1011.90,461.37"/>
    </edge>
    <edge id=":8_0" function="internal">
        <lane id=":8_0_0" index="0" speed="13.90" length="11.11" shape="800.13,731.60 798.58,729.90 796.42,728.65 793.64,727.84 790.24,727.48"/>
    </edge>
    <edge id=":8_1" function="internal">
        <lane id=":8_1_0" index="0" speed="13.90" length="13.59" shape="800.13,731.60 792.32,720.48"/>
    </edge>
    <edge id=":8_2" function="internal">
        <lane id=":8_2_0" index="0" speed="13.90" length="5.24" shape="804.23,725.64 802.95,726.38 802.31,727.33 802.29,728.47 802.90,729.81"/>
    </edge>
    <edge id=":8_3" function="internal">
        <lane id=":8_3_0" index="0" speed="13.90" length="14.22" shape="804.23,725.64 800.79,726.74 797.37,727.33 793.88,727.53 790.24,727.48"/>
    </edge>
    <edge id=":8_4" function="internal">
        <lane id=":8_4_0" index="0" speed="13.90" length="9.68" shape="794.97,718.51 797.04,720.87 799.06,722.34 801.05,722.91 803.00,722.58"/>
    </edge>
    <edge id=":8_5" function="internal">
        <lane id=":8_5_0" index="0" speed="13.90" length="13.81" shape="794.97,718.51 802.90,729.81"/>
    </edge>
    <edge id=":8_6" function="internal">
        <lane id=":8_6_0" index="0" speed="13.90" length="6.24" shape="790.37,724.18 792.30,724.02 793.27,723.34 793.28,722.17 792.32,720.48"/>
    </edge>
    <edge id=":8_7" function="internal">
        <lane id=":8_7_0" index="0" speed="13.90" length="12.85" shape="790.37,724.18 793.80,724.27 796.82,724.15 799.77,723.65 803.00,722.58"/>
    </edge>
    <edge id=":82_0" function="internal">
        <lane id=":82_0_0" index="0" speed="13.90" length="9.36" shape="1011.10,830.54 1007.98,829.06 1005.48,828.27 1003.59,828.14 1002.31,828.69"/>
    </edge>
    <edge id=":82_1" function="internal">
        <lane id=":82_1_0" index="0" speed="13.90" length="6.48" shape="1012.94,823.50 1011.10,824.40 1010.44,825.39 1010.95,826.46 1012.64,827.62"/>
    </edge>
    <edge id=":82_2" function="internal">
        <lane id=":82_2_0" index="0" speed="13.90" length="11.95" shape="1012.94,823.50 1009.81,824.54 1007.24,825.45 1004.86,826.69 1002.31,828.69"/>
    </edge>
    <edge id=":82_3" function="internal">
        <lane id=":82_3_0" index="0" speed="13.90" length="13.25" shape="1000.08,826.26 1002.81,824.15 1005.57,822.68 1008.53,821.53 1011.84,820.39"/>
    </edge>
    <edge id=":90_0" function="internal">
        <lane id=":90_0_0" index="0" speed="13.90" length="5.97" shape="732.54,998.02 732.17,996.30 731.38,995.44 730.18,995.43 728.55,996.28"/>
    </edge>
    <edge id=":90_1" function="internal">
        <lane id=":90_1_0" index="0" speed="13.90" length="11.33" shape="732.54,998.02 731.98,995.16 730.74,992.76 728.82,990.82 726.23,989.34"/>
    </edge>
    <edge id=":90_2" function="internal">
        <lane id=":90_2_0" index="0" speed="13.90" length="7.77" shape="737.75,990.64 736.75,991.49 736.09,992.97 735.78,995.06 735.83,997.78"/>
    </edge>
    <edge id=":90_3" function="internal">
        <lane id=":90_3_0" index="0" speed="13.90" length="10.82" shape="737.75,990.64 734.98,992.00 732.99,993.18 731.08,994.49 728.55,996.28"/>
    </edge>
    <edge id=":90_4" function="internal">
        <lane id=":90_4_0" index="0" speed="13.90" length="9.15" shape="727.52,986.30 730.37,987.36 732.79,987.94 734.79,988.03 736.36,987.64"/>
    </edge>
    <edge id=":90_5" function="internal">
        <lane id=":90_5_0" index="0" speed="13.90" length="14.95" shape="727.52,986.30 730.93,988.25 733.46,990.82 735.09,993.99 735.83,997.78"/>
    </edge>
    <edge id=":90_6" function="internal">
        <lane id=":90_6_0" index="0" speed="13.90" length="5.92" shape="726.66,993.57 727.99,992.37 728.36,991.26 727.77,990.25 726.23,989.34"/>
    </edge>
    <edge id=":90_7" function="internal">
        <lane id=":90_7_0" index="0" speed="13.90" length="11.39" shape="726.66,993.57 729.27,991.74 731.35,990.32 733.51,989.05 736.36,987.64"/>
    </edge>
    <edge id=":93_0" function="internal">
        <lane id=":93_0_0" index="0" speed="13.90" length="9.54" shape="529.01,229.08 527.80,227.30 526.06,226.02 523.78,225.25 520.97,224.97"/>
    </edge>
    <edge id=":93_1" function="internal">
        <lane id=":93_1_0" index="0" speed="13.90" length="12.56" shape="529.01,229.08 527.56,226.04 526.23,223.45 524.82,220.90 523.14,217.98"/>
    </edge>
    <edge id=":93_2" function="internal">
        <lane id=":93_2_0" index="0" speed="13.90" length="5.27" shape="533.93,223.76 532.54,224.30 531.76,225.13 531.58,226.26 532.01,227.69"/>
    </edge>
    <edge id=":93_3" function="internal">
        <lane id=":93_3_0" index="0" speed="13.90" length="13.05" shape="533.93,223.76 530.55,224.43 527.50,224.80 524.42,224.96 520.97,224.97"/>
    </edge>
    <edge id=":93_4" function="internal">
        <lane id=":93_4_0" index="0" speed="13.90" length="8.98" shape="525.99,216.32 527.57,218.53 529.30,219.97 531.17,220.64 533.19,220.54"/>
    </edge>
    <edge id=":93_5" function="internal">
        <lane id=":93_5_0" index="0" speed="13.90" length="12.86" shape="525.99,216.32 527.69,219.28 529.15,221.93 530.53,224.61 532.01,227.69"/>
    </edge>
    <edge id=":93_6" function="internal">
        <lane id=":93_6_0" index="0" speed="13.90" length="5.86" shape="521.00,221.67 522.75,221.45 523.69,220.77 523.82,219.61 523.14,217.98"/>
    </edge>
    <edge id=":93_7" function="internal">
        <lane id=":93_7_0" index="0" speed="13.90" length="12.29" shape="521.00,221.67 524.33,221.67 527.14,221.54 529.93,221.20 533.19,220.54"/>
    </edge>
    <edge id=":97_0" function="internal">
        <lane id=":97_0_0" index="0" speed="13.90" length="11.30" shape="685.56,190.76 682.94,191.05 680.63,192.18 678.62,194.14 676.92,196.95"/>
    </edge>
    <edge id=":97_1" function="internal">
        <lane id=":97_1_0" index="0" speed="13.90" length="14.36" shape="685.56,190.76 681.92,190.74 678.40,191.00 674.91,191.52 671.33,192.25"/>
    </edge>
    <edge id=":97_2" function="internal">
        <lane id=":97_2_0" index="0" speed="13.90" length="5.66" shape="683.59,183.72 683.01,185.29 683.17,186.43 684.07,187.16 685.71,187.46"/>
    </edge>
    <edge id=":97_3" function="internal">
        <lane id=":97_3_0" index="0" speed="13.90" length="14.81" shape="683.59,183.72 676.92,196.95"/>
    </edge>
    <edge id=":97_4" function="internal">
        <lane id=":97_4_0" index="0" speed="13.90" length="12.58" shape="670.59,189.04 673.96,187.98 676.76,186.48 679.00,184.54 680.68,182.16"/>
    </edge>
    <edge id=":97_5" function="internal">
        <lane id=":97_5_0" index="0" speed="13.90" length="15.25" shape="670.59,189.04 674.31,188.29 678.11,187.74 681.93,187.45 685.71,187.46"/>
    </edge>
    <edge id=":97_6" function="internal">
        <lane id=":97_6_0" index="0" speed="13.90" length="6.23" shape="673.95,195.52 674.56,193.69 674.33,192.53 673.26,192.05 671.33,192.25"/>
    </edge>
    <edge id=":97_7" function="internal">
        <lane id=":97_7_0" index="0" speed="13.90" length="14.96" shape="673.95,195.52 680.68,182.16"/>
    </edge>

    <edge id="-105" from="104" to="68" priority="-1">
        <lane id="-105_0" index="0" speed="13.90" length="141.83" shape="279.33,225.51 237.24,360.95"/>
    </edge>
    <edge id="-11" from="10" to="1" priority="-1">
        <lane id="-11_0" index="0" speed="13.90" length="164.09" shape="424.19,766.90 580.90,718.27"/>
    </edge>
    <edge id="-111" from="110" to="68" priority="-1">
        <lane id="-111_0" index="0" speed="13.90" length="225.08" shape="39.22,484.72 230.67,366.34"/>
    </edge>
    <edge id="-112" from="90" to="6" priority="-1">
        <lane id="-112_0" index="0" speed="13.90" length="146.38" shape="726.23,989.34 591.58,931.92"/>
    </edge>
    <edge id="-114" from="82" to="76" priority="-1">
        <lane id="-114_0" index="0" speed="13.90" length="132.12" shape="1011.84,820.39 1136.37,776.27"/>
    </edge>
    <edge id="-120" from="119" to="76" priority="-1">
        <lane id="-120_0" index="0" speed="13.90" length="137.42" shape="1180.08,913.10 1143.82,780.55"/>
    </edge>
    <edge id="-128" from="127" to="78" priority="-1">
        <lane id="-128_0" index="0" speed="13.90" length="211.29" shape="1181.10,603.09 1022.32,463.70"/>
    </edge>
    <edge id="-13" from="12" to="2" priority="-1">
        <lane id="-13_0" index="0" speed="13.90" length="122.98" shape="653.29,540.78 539.02,495.32"/>
    </edge>
    <edge id="-130" from="119" to="82" priority="-1">
        <lane id="-130_0" index="0" speed="13.90" length="186.81" shape="1176.24,917.85 1011.10,830.54"/>
    </edge>
    <edge id="-136" from="135" to="90" priority="-1">
        <lane id="-136_0" index="0" speed="13.90" length="121.38" shape="741.36,1119.07 732.54,998.02"/>
    </edge>
    <edge id="-140" from="139" to="90" priority="-1">
        <lane id="-140_0" index="0" speed="13.90" length="211.58" shape="552.94,1114.33 726.66,993.57"/>
    </edge>
    <edge id="-142" from="97" to="93" priority="-1">
        <lane id="-142_0" index="0" speed="13.90" length="140.97" shape="671.33,192.25 533.93,223.76"/>
    </edge>
    <edge id="-143" from="104" to="93" priority="-1">
        <lane id="-143_0" index="0" speed="13.90" length="233.92" shape="287.08,219.70 521.00,221.67"/>
    </edge>
    <edge id="-145" from="144" to="93" priority="-1">
        <lane id="-145_0" index="0" speed="13.90" length="199.19" shape="425.79,44.17 525.99,216.32"/>
    </edge>
    <edge id="-147" from="146" to="97" priority="-1">
        <lane id="-147_0" index="0" speed="13.90" length="161.70" shape="847.09,198.21 685.56,190.76"/>
    </edge>
    <edge id="-15" from="14" to="2" priority="-1">
        <lane id="-15_0" index="0" speed="13.90" length="138.48" shape="476.67,361.07 532.77,487.67"/>
    </edge>
    <edge id="-165" from="164" to="97" priority="-1">
        <lane id="-165_0" index="0" speed="13.90" length="207.50" shape="781.51,0.78 683.59,183.72"/>
    </edge>
    <edge id="-166" from="144" to="104" priority="-1">
        <lane id="-166_0" index="0" speed="13.90" length="217.32" shape="420.30,45.64 285.27,215.92"/>
    </edge>
    <edge id="-17" from="12" to="8" priority="-1">
        <lane id="-17_0" index="0" speed="13.90" length="213.49" shape="667.66,547.13 794.97,718.51"/>
    </edge>
    <edge id="-170" from="169" to="110" priority="-1">
        <lane id="-170_0" index="0" speed="13.90" length="177.75" shape="209.88,548.64 40.47,494.80"/>
    </edge>
    <edge id="-174" from="173" to="110" priority="-1">
        <lane id="-174_0" index="0" speed="13.90" length="146.38" shape="-1.61,638.12 30.10,495.21"/>
    </edge>
    <edge id="-19" from="18" to="8" priority="-1">
        <lane id="-19_0" index="0" speed="13.90" length="182.58" shape="973.58,657.41 804.23,725.64"/>
    </edge>
    <edge id="-25" from="24" to="8" priority="-1">
        <lane id="-25_0" index="0" speed="13.90" length="203.89" shape="910.34,903.13 800.13,731.60"/>
    </edge>
    <edge id="-3" from="2" to="1" priority="-1">
        <lane id="-3_0" index="0" speed="13.90" length="221.34" shape="535.83,498.09 587.51,713.31"/>
    </edge>
    <edge id="-38" from="37" to="12" priority="-1">
        <lane id="-38_0" index="0" speed="13.90" length="176.98" shape="597.05,368.43 660.53,533.63"/>
    </edge>
    <edge id="-64" from="63" to="12" priority="-1">
        <lane id="-64_0" index="0" speed="13.90" length="144.91" shape="812.68,522.14 669.30,543.17"/>
    </edge>
    <edge id="-65" from="37" to="14" priority="-1">
        <lane id="-65_0" index="0" speed="13.90" length="108.27" shape="587.03,366.76 479.15,357.58"/>
    </edge>
    <edge id="-69" from="68" to="14" priority="-1">
        <lane id="-69_0" index="0" speed="13.90" length="228.88" shape="239.89,364.39 468.53,353.86"/>
    </edge>
    <edge id="-7" from="6" to="1" priority="-1">
        <lane id="-7_0" index="0" speed="13.90" length="203.54" shape="588.60,927.49 585.41,723.98"/>
    </edge>
    <edge id="-71" from="63" to="18" priority="-1">
        <lane id="-71_0" index="0" speed="13.90" length="196.75" shape="822.27,523.59 975.06,647.55"/>
    </edge>
    <edge id="-77" from="76" to="18" priority="-1">
        <lane id="-77_0" index="0" speed="13.90" length="193.76" shape="1137.00,772.09 981.34,656.70"/>
    </edge>
    <edge id="-79" from="78" to="18" priority="-1">
        <lane id="-79_0" index="0" speed="13.90" length="185.23" shape="1018.28,465.08 982.42,646.81"/>
    </edge>
    <edge id="-81" from="80" to="24" priority="-1">
        <lane id="-81_0" index="0" speed="13.90" length="201.92" shape="1060.36,1053.53 916.95,911.38"/>
    </edge>
    <edge id="-83" from="82" to="24" priority="-1">
        <lane id="-83_0" index="0" speed="13.90" length="112.03" shape="1002.31,828.69 919.69,904.35"/>
    </edge>
    <edge id="-9" from="8" to="1" priority="-1">
        <lane id="-9_0" index="0" speed="13.90" length="198.56" shape="790.24,727.48 591.83,719.95"/>
    </edge>
    <edge id="-91" from="90" to="24" priority="-1">
        <lane id="-91_0" index="0" speed="13.90" length="190.52" shape="736.36,987.64 909.19,907.45"/>
    </edge>
    <edge id="-94" from="93" to="37" priority="-1">
        <lane id="-94_0" index="0" speed="13.90" length="143.01" shape="532.01,227.69 592.21,357.41"/>
    </edge>
    <edge id="-98" from="97" to="37" priority="-1">
        <lane id="-98_0" index="0" speed="13.90" length="179.54" shape="676.92,196.95 599.36,358.86"/>
    </edge>
    <edge id="-99" from="78" to="63" priority="-1">
        <lane id="-99_0" index="0" speed="13.90" length="197.55" shape="1011.90,461.37 823.08,519.43"/>
    </edge>
    <edge id="105" from="68" to="104" priority="-1">
        <lane id="105_0" index="0" speed="13.90" length="141.83" shape="234.09,359.97 276.18,224.53"/>
    </edge>
    <edge id="11" from="1" to="10" priority="-1">
        <lane id="11_0" index="0" speed="13.90" length="164.09" shape="581.88,721.42 425.16,770.05"/>
    </edge>