<additional xmlns:xsi="http://www.w3.org/2001/XMLSchema-instance" xsi:noNamespaceSchemaLocation="http://sumo.dlr.de/xsd/additional_file.xsd">
    <laneAreaDetector file="e2.output.xml" freq="60" friendlyPos="x" id="1_e2det_-11_0" lane="-11_0" length="60" pos="103.99000000000001"/>
    <laneAreaDetector file="e2.output.xml" freq="60" friendlyPos="x" id="1_e2det_-3_0" lane="-3_0" length="60" pos="161.24"/>
    <laneAreaDetector file="e2.output.xml" freq="60" friendlyPos="x" id="1_e2det_-7_0" lane="-7_0" length="60" pos="145.55"/>
    <laneAreaDetector file="e2.output.xml" freq="60" friendlyPos="x" id="1_e2det_-9_0" lane="-9_0" length="60" pos="138.46"/>
    <laneAreaDetector file="e2.output.xml" freq="60" friendlyPos="x" id="2_e2det_-13_0" lane="-13_0" length="60" pos="62.88"/>
    <laneAreaDetector file="e2.output.xml" freq="60" friendlyPos="x" id="2_e2det_-15_0" lane="-15_0" length="60" pos="78.38"/>
    <laneAreaDetector file="e2.output.xml" freq="60" friendlyPos="x" id="2_e2det_3_0" lane="3_0" length="60" pos="161.24"/>
    <laneAreaDetector file="e2.output.xml" freq="60" friendlyPos="x" id="8_e2det_-17_0" lane="-17_0" length="60" pos="153.39000000000001"/>
    <laneAreaDetector file="e2.output.xml" freq="60" friendlyPos="x" id="8_e2det_-19_0" lane="-19_0" length="60" pos="122.48000000000002"/>
    <laneAreaDetector file="e2.output.xml" freq="60" friendlyPos="x" id="8_e2det_-25_0" lane="-25_0" length="60" pos="148.79"/>
    <laneAreaDetector file="e2.output.xml" freq="60" friendlyPos="x" id="8_e2det_9_0" lane="9_0" length="60" pos="138.46"/>
    <laneAreaDetector file="e2.output.xml" freq="60" friendlyPos="x" id="12_e2det_-38_0" lane="-38_0" length="60" pos="118.38"/>
    <laneAreaDetector file="e2.output.xml" freq="60" friendlyPos="x" id="12_e2det_-64_0" lane="-64_0" length="60" pos="86.31"/>
    <laneAreaDetector file="e2.output.xml" freq="60" friendlyPos="x" id="12_e2det_13_0" lane="13_0" length="60" pos="62.88"/>
    <laneAreaDetector file="e2.output.xml" freq="60" friendlyPos="x" id="12_e2det_17_0" lane="17_0" length="60" pos="153.39000000000001"/>
    <laneAreaDetector file="e2.output.xml" freq="60" friendlyPos="x" id="14_e2det_-65_0" lane="-65_0" length="60" pos="53.23"/>
    <laneAreaDetector file="e2.output.xml" freq="60" friendlyPos="x" id="14_e2det_-69_0" lane="-69_0" length="60" pos="174.91"/>
    <laneAreaDetector file="e2.output.xml" freq="60" friendlyPos="x" id="14_e2det_15_0" lane="15_0" length="60" pos="78.38"/>
    <laneAreaDetector file="e2.output.xml" freq="60" friendlyPos="x" id="18_e2det_-71_0" lane="-71_0" length="60" pos="142.82"/>
    <laneAreaDetector file="e2.output.xml" freq="60" friendlyPos="x" id="18_e2det_-77_0" lane="-77_0" length="60" pos="141.27"/>
    <laneAreaDetector file="e2.output.xml" freq="60" friendlyPos="x" id="18_e2det_-79_0" lane="-79_0" length="60" pos="132.28"/>
    <laneAreaDetector file="e2.output.xml" freq="60" friendlyPos="x" id="18_e2det_19_0" lane="19_0" length="60" pos="122.48000000000002"/>
</additional>
