<additional xmlns:xsi="http://www.w3.org/2001/XMLSchema-instance" xsi:noNamespaceSchemaLocation="http://sumo.dlr.de/xsd/additional_file.xsd">
    <laneAreaDetector file="e2_Static.output.xml" freq="60" friendlyPos="x" id="1_e2det_-11_0" lane="-11_0" length="60" pos="99.75"/>
    <laneAreaDetector file="e2_Static.output.xml" freq="60" friendlyPos="x" id="1_e2det_-11_1" lane="-11_1" length="60" pos="99.75"/>
    <laneAreaDetector file="e2_Static.output.xml" freq="60" friendlyPos="x" id="1_e2det_-11_2" lane="-11_2" length="60" pos="99.75"/>
    <laneAreaDetector file="e2_Static.output.xml" freq="60" friendlyPos="x" id="1_e2det_-11_3" lane="-11_3" length="60" pos="99.75"/>
    <laneAreaDetector file="e2_Static.output.xml" freq="60" friendlyPos="x" id="1_e2det_-11_4" lane="-11_4" length="60" pos="99.75"/>
    <laneAreaDetector file="e2_Static.output.xml" freq="60" friendlyPos="x" id="1_e2det_-3_0" lane="-3_0" length="60" pos="138.13"/>
    <laneAreaDetector file="e2_Static.output.xml" freq="60" friendlyPos="x" id="1_e2det_-3_1" lane="-3_1" length="60" pos="138.13"/>
    <laneAreaDetector file="e2_Static.output.xml" freq="60" friendlyPos="x" id="1_e2det_-3_2" lane="-3_2" length="60" pos="138.13"/>
    <laneAreaDetector file="e2_Static.output.xml" freq="60" friendlyPos="x" id="1_e2det_-7_0" lane="-7_0" length="60" pos="132.28"/>
    <laneAreaDetector file="e2_Static.output.xml" freq="60" friendlyPos="x" id="1_e2det_-9_0" lane="-9_0" length="60" pos="121.83000000000001"/>
    <laneAreaDetector file="e2_Static.output.xml" freq="60" friendlyPos="x" id="1_e2det_-9_1" lane="-9_1" length="60" pos="121.83000000000001"/>
    <laneAreaDetector file="e2_Static.output.xml" freq="60" friendlyPos="x" id="1_e2det_-9_2" lane="-9_2" length="60" pos="121.83000000000001"/>
    <laneAreaDetector file="e2_Static.output.xml" freq="60" friendlyPos="x" id="1_e2det_-9_3" lane="-9_3" length="60" pos="121.83000000000001"/>
    <laneAreaDetector file="e2_Static.output.xml" freq="60" friendlyPos="x" id="1_e2det_-9_4" lane="-9_4" length="60" pos="121.83000000000001"/>
    <laneAreaDetector file="e2_Static.output.xml" freq="60" friendlyPos="x" id="2_e2det_-13_0" lane="-13_0" length="60" pos="59.46999999999999"/>
    <laneAreaDetector file="e2_Static.output.xml" freq="60" friendlyPos="x" id="2_e2det_-13_1" lane="-13_1" length="60" pos="59.46999999999999"/>
    <laneAreaDetector file="e2_Static.output.xml" freq="60" friendlyPos="x" id="2_e2det_-13_2" lane="-13_2" length="60" pos="59.46999999999999"/>
    <laneAreaDetector file="e2_Static.output.xml" freq="60" friendlyPos="x" id="2_e2det_3_0" lane="3_0" length="60" pos="138.13"/>
    <laneAreaDetector file="e2_Static.output.xml" freq="60" friendlyPos="x" id="2_e2det_3_1" lane="3_1" length="60" pos="138.13"/>
    <laneAreaDetector file="e2_Static.output.xml" freq="60" friendlyPos="x" id="2_e2det_3_2" lane="3_2" length="60" pos="138.13"/>
    <laneAreaDetector file="e2_Static.output.xml" freq="60" friendlyPos="x" id="8_e2det_-15_0" lane="-15_0" length="60" pos="132.03"/>
    <laneAreaDetector file="e2_Static.output.xml" freq="60" friendlyPos="x" id="8_e2det_-15_1" lane="-15_1" length="60" pos="132.03"/>
    <laneAreaDetector file="e2_Static.output.xml" freq="60" friendlyPos="x" id="8_e2det_-19_0" lane="-19_0" length="60" pos="120.6"/>
    <laneAreaDetector file="e2_Static.output.xml" freq="60" friendlyPos="x" id="8_e2det_-19_1" lane="-19_1" length="60" pos="120.6"/>
    <laneAreaDetector file="e2_Static.output.xml" freq="60" friendlyPos="x" id="8_e2det_-19_2" lane="-19_2" length="60" pos="120.6"/>
    <laneAreaDetector file="e2_Static.output.xml" freq="60" friendlyPos="x" id="8_e2det_-19_3" lane="-19_3" length="60" pos="120.6"/>
    <laneAreaDetector file="e2_Static.output.xml" freq="60" friendlyPos="x" id="8_e2det_-19_4" lane="-19_4" length="60" pos="120.6"/>
    <laneAreaDetector file="e2_Static.output.xml" freq="60" friendlyPos="x" id="8_e2det_-25_0" lane="-25_0" length="60" pos="134.96"/>
    <laneAreaDetector file="e2_Static.output.xml" freq="60" friendlyPos="x" id="8_e2det_-25_1" lane="-25_1" length="60" pos="134.96"/>
    <laneAreaDetector file="e2_Static.output.xml" freq="60" friendlyPos="x" id="8_e2det_-25_2" lane="-25_2" length="60" pos="134.96"/>
    <laneAreaDetector file="e2_Static.output.xml" freq="60" friendlyPos="x" id="8_e2det_-63_0" lane="-63_0" length="60" pos="75.07"/>
    <laneAreaDetector file="e2_Static.output.xml" freq="60" friendlyPos="x" id="8_e2det_-63_1" lane="-63_1" length="60" pos="75.07"/>
    <laneAreaDetector file="e2_Static.output.xml" freq="60" friendlyPos="x" id="8_e2det_9_0" lane="9_0" length="60" pos="121.83000000000001"/>
    <laneAreaDetector file="e2_Static.output.xml" freq="60" friendlyPos="x" id="8_e2det_9_1" lane="9_1" length="60" pos="121.83000000000001"/>
    <laneAreaDetector file="e2_Static.output.xml" freq="60" friendlyPos="x" id="8_e2det_9_2" lane="9_2" length="60" pos="121.83000000000001"/>
    <laneAreaDetector file="e2_Static.output.xml" freq="60" friendlyPos="x" id="8_e2det_9_3" lane="9_3" length="60" pos="121.83000000000001"/>
    <laneAreaDetector file="e2_Static.output.xml" freq="60" friendlyPos="x" id="8_e2det_9_4" lane="9_4" length="60" pos="121.83000000000001"/>
    <laneAreaDetector file="e2_Static.output.xml" freq="60" friendlyPos="x" id="12_e2det_-68_0" lane="-68_0" length="60" pos="124.61000000000001"/>
    <laneAreaDetector file="e2_Static.output.xml" freq="60" friendlyPos="x" id="12_e2det_-68_1" lane="-68_1" length="60" pos="124.61000000000001"/>
    <laneAreaDetector file="e2_Static.output.xml" freq="60" friendlyPos="x" id="12_e2det_13_0" lane="13_0" length="60" pos="59.46999999999999"/>
    <laneAreaDetector file="e2_Static.output.xml" freq="60" friendlyPos="x" id="12_e2det_13_1" lane="13_1" length="60" pos="59.46999999999999"/>
    <laneAreaDetector file="e2_Static.output.xml" freq="60" friendlyPos="x" id="12_e2det_15_0" lane="15_0" length="60" pos="132.03"/>
    <laneAreaDetector file="e2_Static.output.xml" freq="60" friendlyPos="x" id="12_e2det_15_1" lane="15_1" length="60" pos="132.03"/>
</additional>
