<?xml version="1.0" encoding="UTF-8"?>

<!-- generated on Wed Jan 17 18:15:30 2018 by SUMO duarouter Version 0.30.0
<?xml version="1.0" encoding="UTF-8"?>

<configuration xmlns:xsi="http://www.w3.org/2001/XMLSchema-instance" xsi:noNamespaceSchemaLocation="http://sumo.dlr.de/xsd/duarouterConfiguration.xsd">

    <input>
        <net-file value="../examples/data/neighborhood/city.net.xml"/>
        <route-files value="../examples/data/neighborhood/trips.trips.xml"/>
    </input>

    <output>
        <output-file value="../examples/data/neighborhood/routes.rou.xml"/>
    </output>

    <processing>
        <ignore-errors value="true"/>
    </processing>

    <time>
        <begin value="0"/>
        <end value="500"/>
    </time>

    <report>
        <no-warnings value="true"/>
        <no-step-log value="true"/>
    </report>

</configuration>
-->

<routes xmlns:xsi="http://www.w3.org/2001/XMLSchema-instance" xsi:noNamespaceSchemaLocation="http://sumo.dlr.de/xsd/routes_file.xsd">
    <vehicle id="0" depart="0.00">
        <route edges="-69 65 -38 -17"/>
    </vehicle>
    <vehicle id="1" depart="1.00">
        <route edges="71"/>
    </vehicle>
    <vehicle id="9" depart="9.00">
        <route edges="-81 -25 17 -13 -3 9 19"/>
    </vehicle>
    <vehicle id="14" depart="14.00">
        <route edges="65 -38 -17"/>
    </vehicle>
    <vehicle id="16" depart="16.00">
        <route edges="-77 71 -64 -13 -3 9"/>
    </vehicle>
    <vehicle id="17" depart="17.00">
        <route edges="19 71 -64 -13 -3 7"/>
    </vehicle>
    <vehicle id="18" depart="18.00">
        <route edges="19 71 -64 -13 -3 9 17 38 -65"/>
    </vehicle>
    <vehicle id="21" depart="21.00">
        <route edges="-38 -17 19 71 -64 -13 -3 7"/>
    </vehicle>
    <vehicle id="24" depart="24.00">
        <route edges="-3 9 17 38 -65 69"/>
    </vehicle>
    <vehicle id="26" depart="26.00">
        <route edges="-64 -17 19 71"/>
    </vehicle>
    <vehicle id="27" depart="27.00">
        <route edges="71 -64 -13 -3 9 17 38 -65"/>
    </vehicle>
    <vehicle id="29" depart="29.00">
        <route edges="-11 3"/>
    </vehicle>
    <vehicle id="30" depart="30.00">
        <route edges="-11 9 17 38 -65 -15 13 64 -71"/>
    </vehicle>
    <vehicle id="32" depart="32.00">
        <route edges="-64 -17 25 81"/>
    </vehicle>
    <vehicle id="34" depart="34.00">
        <route edges="-77 71 -64 -13 -3 9 17 38 -65 -15"/>
    </vehicle>
    <vehicle id="37" depart="37.00">
        <route edges="-17 19 71 -64 -13 -3 9 17 38 -65 -15 13 64"/>
    </vehicle>
    <vehicle id="38" depart="38.00">
        <route edges="-17 19 79"/>
    </vehicle>
    <vehicle id="41" depart="41.00">
        <route edges="65 -38 -17 19 71 -64 -13 -3 9 17"/>
    </vehicle>
    <vehicle id="42" depart="42.00">
        <route edges="-25 17 38 -65 69"/>
    </vehicle>
    <vehicle id="45" depart="45.00">
        <route edges="9 17 38 -65 69"/>
    </vehicle>
    <vehicle id="46" depart="46.00">
        <route edges="19 71 -64 -13 -3 9 17 38 -65 69"/>
    </vehicle>
    <vehicle id="47" depart="47.00">
        <route edges="-17 25"/>
    </vehicle>
    <vehicle id="48" depart="48.00">
        <route edges="-17 19 71 -64 -13 -3 9 17"/>
    </vehicle>
    <vehicle id="49" depart="49.00">
        <route edges="-77 -19 -9 11"/>
    </vehicle>
    <vehicle id="54" depart="54.00">
        <route edges="-81 -25 -9 11"/>
    </vehicle>
    <vehicle id="55" depart="55.00">
        <route edges="19 71 -64 -13 -3 9 17 38 -65 -15 13 64"/>
    </vehicle>
    <vehicle id="56" depart="56.00">
        <route edges="-69 65 -38 -17 19 71"/>
    </vehicle>
    <vehicle id="62" depart="62.00">
        <route edges="-17 19 71 -64 -13 -3 9 17 38"/>
    </vehicle>
    <vehicle id="63" depart="63.00">
        <route edges="-81 -25 17 38 -65 -15 13 64 -71"/>
    </vehicle>
    <vehicle id="64" depart="64.00">
        <route edges="17"/>
    </vehicle>
    <vehicle id="67" depart="67.00">
        <route edges="-69 65 -38 -17 19 71 -64 -13"/>
    </vehicle>
    <vehicle id="68" depart="68.00">
        <route edges="38"/>
    </vehicle>
    <vehicle id="70" depart="70.00">
        <route edges="-38 -17 25"/>
    </vehicle>
    <vehicle id="72" depart="72.00">
        <route edges="-17 19 71 -64 -13 -3 9 17 38 -65 -15 13 64"/>
    </vehicle>
    <vehicle id="74" depart="74.00">
        <route edges="-11 3"/>
    </vehicle>
    <vehicle id="75" depart="75.00">
        <route edges="19 71 -64 -17 25 81"/>
    </vehicle>
    <vehicle id="77" depart="77.00">
        <route edges="65 -38 -17 19 71 -64 -13 -3"/>
    </vehicle>
    <vehicle id="80" depart="80.00">
        <route edges="-3 9 17 -13"/>
    </vehicle>
    <vehicle id="81" depart="81.00">
        <route edges="71 -64 -13"/>
    </vehicle>
    <vehicle id="82" depart="82.00">
        <route edges="65 -38 -17"/>
    </vehicle>
    <vehicle id="84" depart="84.00">
        <route edges="17 -13 -3 9 19 71 -64 -17"/>
    </vehicle>
    <vehicle id="85" depart="85.00">
        <route edges="-3 7"/>
    </vehicle>
    <vehicle id="87" depart="87.00">
        <route edges="-3 9 17 -13"/>
    </vehicle>
    <vehicle id="92" depart="92.00">
        <route edges="-69 65 -38 -17"/>
    </vehicle>
    <vehicle id="93" depart="93.00">
        <route edges="-79 -19 -9"/>
    </vehicle>
    <vehicle id="94" depart="94.00">
        <route edges="19 71 -64 -13 -3 9 17 38 -65 -15"/>
    </vehicle>
    <vehicle id="95" depart="95.00">
        <route edges="17 -13 -3 9"/>
    </vehicle>
    <vehicle id="97" depart="97.00">
        <route edges="-64 -13 -3 9 17"/>
    </vehicle>
    <vehicle id="99" depart="99.00">
        <route edges="-11 9 19 71 -64"/>
    </vehicle>
    <vehicle id="100" depart="100.00">
        <route edges="-64 -13 -3 9 17 38 -65 -15 13 64"/>
    </vehicle>
    <vehicle id="105" depart="105.00">
        <route edges="17 38 -65 -15 13 64 -71 77"/>
    </vehicle>
    <vehicle id="108" depart="108.00">
        <route edges="64 -71 79"/>
    </vehicle>
    <vehicle id="109" depart="109.00">
        <route edges="19 71 -64 -13"/>
    </vehicle>
    <vehicle id="110" depart="110.00">
        <route edges="-11 9 17 38 -65 -15 13 64 -71"/>
    </vehicle>
    <vehicle id="115" depart="115.00">
        <route edges="65 -38 64 -71 79"/>
    </vehicle>
    <vehicle id="119" depart="119.00">
        <route edges="19 71 -64 -17 25 81"/>
    </vehicle>
    <vehicle id="122" depart="122.00">
        <route edges="71 -64 -17"/>
    </vehicle>
    <vehicle id="124" depart="124.00">
        <route edges="9 19 79"/>
    </vehicle>
    <vehicle id="125" depart="125.00">
        <route edges="17 -13 -3 9 19 71 -64 -17 25 81"/>
    </vehicle>
    <vehicle id="126" depart="126.00">
        <route edges="-7 3 15 69"/>
    </vehicle>
    <vehicle id="131" depart="131.00">
        <route edges="3 15 69"/>
    </vehicle>
    <vehicle id="132" depart="132.00">
        <route edges="-81 -25 -9 11"/>
    </vehicle>
    <vehicle id="133" depart="133.00">
        <route edges="-69 65 -38 64"/>
    </vehicle>
    <vehicle id="134" depart="134.00">
        <route edges="17 38 -65 69"/>
    </vehicle>
    <vehicle id="138" depart="138.00">
        <route edges="19 71 -64"/>
    </vehicle>
    <vehicle id="140" depart="140.00">
        <route edges="-64 -17 19"/>
    </vehicle>
    <vehicle id="141" depart="141.00">
        <route edges="-81 -25 17 38"/>
    </vehicle>
    <vehicle id="144" depart="144.00">
        <route edges="-64 -13 -3 9 17 38 -65 69"/>
    </vehicle>
    <vehicle id="145" depart="145.00">
        <route edges="19 71 -64 -13 -3 7"/>
    </vehicle>
    <vehicle id="147" depart="147.00">
        <route edges="-71"/>
    </vehicle>
    <vehicle id="149" depart="149.00">
        <route edges="17 38 -65 -15"/>
    </vehicle>
    <vehicle id="151" depart="151.00">
        <route edges="-64 -13 -3 7"/>
    </vehicle>
    <vehicle id="152" depart="152.00">
        <route edges="71 -64 -13 -3 9 17 38 -65 -15"/>
    </vehicle>
    <vehicle id="153" depart="153.00">
        <route edges="17 38 -65 -15"/>
    </vehicle>
    <vehicle id="156" depart="156.00">
        <route edges="-3 9 17 -13"/>
    </vehicle>
    <vehicle id="157" depart="157.00">
        <route edges="71"/>
    </vehicle>
    <vehicle id="160" depart="160.00">
        <route edges="71"/>
    </vehicle>
    <vehicle id="161" depart="161.00">
        <route edges="-64 -13 -3 7"/>
    </vehicle>
    <vehicle id="162" depart="162.00">
        <route edges="-9 11"/>
    </vehicle>
    <vehicle id="163" depart="163.00">
        <route edges="9 17 38 -65 -15 13 64 -71 77"/>
    </vehicle>
    <vehicle id="164" depart="164.00">
        <route edges="65 -38 64 -71 77"/>
    </vehicle>
    <vehicle id="169" depart="169.00">
        <route edges="-11 9 19 79"/>
    </vehicle>
    <vehicle id="170" depart="170.00">
        <route edges="-13 -3 9 19 79"/>
    </vehicle>
    <vehicle id="172" depart="172.00">
        <route edges="-69 65 -38 -17 19 71"/>
    </vehicle>
    <vehicle id="173" depart="173.00">
        <route edges="13 38 -65 -15"/>
    </vehicle>
    <vehicle id="174" depart="174.00">
        <route edges="-3 9"/>
    </vehicle>
    <vehicle id="175" depart="175.00">
        <route edges="-79 -19 25 81"/>
    </vehicle>
    <vehicle id="179" depart="179.00">
        <route edges="-38 64 -71"/>
    </vehicle>
    <vehicle id="180" depart="180.00">
        <route edges="71 -64 -13 -3 9 17"/>
    </vehicle>
    <vehicle id="181" depart="181.00">
        <route edges="-77 71 -64 -17 19"/>
    </vehicle>
    <vehicle id="184" depart="184.00">
        <route edges="-11 9 17 38 -65 -15 13 64 -71"/>
    </vehicle>
    <vehicle id="185" depart="185.00">
        <route edges="-17 19 71 -64"/>
    </vehicle>
    <vehicle id="186" depart="186.00">
        <route edges="65 -38 -17 19 71 -64 -13 -3 9 17 38"/>
    </vehicle>
    <vehicle id="187" depart="187.00">
        <route edges="71"/>
    </vehicle>
    <vehicle id="188" depart="188.00">
        <route edges="25"/>
    </vehicle>
    <vehicle id="191" depart="191.00">
        <route edges="-13 -3"/>
    </vehicle>
    <vehicle id="192" depart="192.00">
        <route edges="-77 -19 25"/>
    </vehicle>
    <vehicle id="193" depart="193.00">
        <route edges="-17 25"/>
    </vehicle>
    <vehicle id="194" depart="194.00">
        <route edges="-64 -13 -3 9 17 38 -65 -15 13"/>
    </vehicle>
    <vehicle id="198" depart="198.00">
        <route edges="71 -64 -13 -3 7"/>
    </vehicle>
    <vehicle id="199" depart="199.00">
        <route edges="-79 77"/>
    </vehicle>
    <vehicle id="200" depart="200.00">
        <route edges="-77 71 -64 -13 -3 9 17 38"/>
    </vehicle>
    <vehicle id="202" depart="202.00">
        <route edges="-19 -9 7"/>
    </vehicle>
    <vehicle id="205" depart="205.00">
        <route edges="-38 64 -71 79"/>
    </vehicle>
    <vehicle id="206" depart="206.00">
        <route edges="-69 65 -38 -17 19 71"/>
    </vehicle>
    <vehicle id="209" depart="209.00">
        <route edges="9 17 38"/>
    </vehicle>
    <vehicle id="210" depart="210.00">
        <route edges="-13 -3 9 17 38 -65 69"/>
    </vehicle>
    <vehicle id="213" depart="213.00">
        <route edges="65 -38 -17 19 71 -64 -13 -3 9 17 38 -65 -15 13"/>
    </vehicle>
    <vehicle id="215" depart="215.00">
        <route edges="-25 17 38 -65"/>
    </vehicle>
    <vehicle id="217" depart="217.00">
        <route edges="19 71 -64 -13 -3 9 17 38 -65 -15 13 64 -71 77"/>
    </vehicle>
    <vehicle id="218" depart="218.00">
        <route edges="-11 9 17"/>
    </vehicle>
    <vehicle id="219" depart="219.00">
        <route edges="65 -38 -17 19"/>
    </vehicle>
    <vehicle id="220" depart="220.00">
        <route edges="-19 25 81"/>
    </vehicle>
    <vehicle id="222" depart="222.00">
        <route edges="65 -38 -17 19 71 -64 -13 -3 9 17 38 -65 -15 13"/>
    </vehicle>
    <vehicle id="223" depart="223.00">
        <route edges="17 -13 -3 9 19 79"/>
    </vehicle>
    <vehicle id="224" depart="224.00">
        <route edges="38 -65 -15 13 64 -71 77"/>
    </vehicle>
    <vehicle id="225" depart="225.00">
        <route edges="71 -64"/>
    </vehicle>
    <vehicle id="227" depart="227.00">
        <route edges="71 -64 -17 25"/>
    </vehicle>
    <vehicle id="228" depart="228.00">
        <route edges="-38 64"/>
    </vehicle>
    <vehicle id="230" depart="230.00">
        <route edges="71 -64 -13 -3"/>
    </vehicle>
    <vehicle id="232" depart="232.00">
        <route edges="-3 9 17"/>
    </vehicle>
    <vehicle id="233" depart="233.00">
        <route edges="-64 -13 -3 9 17 38"/>
    </vehicle>
    <vehicle id="234" depart="234.00">
        <route edges="-65 -15 13 64"/>
    </vehicle>
    <vehicle id="236" depart="236.00">
        <route edges="-3 9 19 71 -64 -17"/>
    </vehicle>
    <vehicle id="239" depart="239.00">
        <route edges="17 -13 -3 9 19 79"/>
    </vehicle>
    <vehicle id="242" depart="242.00">
        <route edges="-25 17 -13 -3 9 19 71"/>
    </vehicle>
    <vehicle id="244" depart="244.00">
        <route edges="-3 9 19"/>
    </vehicle>
    <vehicle id="251" depart="251.00">
        <route edges="-64 -13 -3 7"/>
    </vehicle>
    <vehicle id="253" depart="253.00">
        <route edges="-17 19 71 -64 -13"/>
    </vehicle>
    <vehicle id="255" depart="255.00">
        <route edges="-38 -17"/>
    </vehicle>
    <vehicle id="257" depart="257.00">
        <route edges="17 -13 -3"/>
    </vehicle>
    <vehicle id="259" depart="259.00">
        <route edges="-65 69"/>
    </vehicle>
    <vehicle id="260" depart="260.00">
        <route edges="-19"/>
    </vehicle>
    <vehicle id="262" depart="262.00">
        <route edges="65 -38 -17 25 81"/>
    </vehicle>
    <vehicle id="263" depart="263.00">
        <route edges="-77 71 -64 -17"/>
    </vehicle>
    <vehicle id="264" depart="264.00">
        <route edges="17"/>
    </vehicle>
    <vehicle id="265" depart="265.00">
        <route edges="-81 -25 17 38 -65 -15"/>
    </vehicle>
    <vehicle id="267" depart="267.00">
        <route edges="-81 -25 17 -13 -3 9 19 71 -64 -17"/>
    </vehicle>
    <vehicle id="269" depart="269.00">
        <route edges="-38 -17 19 71 -64 -13 -3 9"/>
    </vehicle>
    <vehicle id="270" depart="270.00">
        <route edges="-38 -17 19 71 -64 -13 -3 9 17 38 -65 -15"/>
    </vehicle>
    <vehicle id="272" depart="272.00">
        <route edges="25"/>
    </vehicle>
    <vehicle id="273" depart="273.00">
        <route edges="-11 9 17"/>
    </vehicle>
    <vehicle id="277" depart="277.00">
        <route edges="19 71 -64 -13 -3 7"/>
    </vehicle>
    <vehicle id="279" depart="279.00">
        <route edges="-11 9 17"/>
    </vehicle>
    <vehicle id="280" depart="280.00">
        <route edges="-64 -13 -3 9 17 38 -65 -15 13 64"/>
    </vehicle>
    <vehicle id="283" depart="283.00">
        <route edges="-11 9 19 71 -64"/>
    </vehicle>
    <vehicle id="285" depart="285.00">
        <route edges="17 -13 -3 7"/>
    </vehicle>
    <vehicle id="286" depart="286.00">
        <route edges="-77 71 -64 -13 -3 9"/>
    </vehicle>
    <vehicle id="287" depart="287.00">
        <route edges="-25 17 -13 -3 9 19 71 -64 -17 25"/>
    </vehicle>
    <vehicle id="288" depart="288.00">
        <route edges="-81 -25 17 38 -65 -15 13 64 -71"/>
    </vehicle>
    <vehicle id="290" depart="290.00">
        <route edges="-65 -15 13"/>
    </vehicle>
    <vehicle id="291" depart="291.00">
        <route edges="9"/>
    </vehicle>
    <vehicle id="293" depart="293.00">
        <route edges="-19 -9 7"/>
    </vehicle>
    <vehicle id="295" depart="295.00">
        <route edges="-25 17 -13 -3 9 19 79"/>
    </vehicle>
    <vehicle id="296" depart="296.00">
        <route edges="-11 3"/>
    </vehicle>
    <vehicle id="299" depart="299.00">
        <route edges="-77 71 -64 -13 -3 9 17 38 -65"/>
    </vehicle>
    <vehicle id="300" depart="300.00">
        <route edges="-38 64 -71 77"/>
    </vehicle>
    <vehicle id="302" depart="302.00">
        <route edges="65 -38 -17 19 71 -64 -13 -3 9 17"/>
    </vehicle>
    <vehicle id="304" depart="304.00">
        <route edges="-81 -25 17 38"/>
    </vehicle>
    <vehicle id="305" depart="305.00">
        <route edges="-64 -13 -3 9 17 38 -65 -15 13 64 -71 77"/>
    </vehicle>
    <vehicle id="308" depart="308.00">
        <route edges="-81 -25 17 38"/>
    </vehicle>
    <vehicle id="310" depart="310.00">
        <route edges="17 38"/>
    </vehicle>
    <vehicle id="311" depart="311.00">
        <route edges="13 64 -71 79"/>
    </vehicle>
    <vehicle id="312" depart="312.00">
        <route edges="-64 -13 -3 9"/>
    </vehicle>
    <vehicle id="313" depart="313.00">
        <route edges="-25 17 -13 -3 9 19 71 -64 -17"/>
    </vehicle>
    <vehicle id="316" depart="316.00">
        <route edges="-64 -13 -3 9 17 38 -65 -15 13 64 -71"/>
    </vehicle>
    <vehicle id="317" depart="317.00">
        <route edges="-11 9 19 71 -64"/>
    </vehicle>
    <vehicle id="319" depart="319.00">
        <route edges="13"/>
    </vehicle>
    <vehicle id="320" depart="320.00">
        <route edges="71 -64 -13 -3 7"/>
    </vehicle>
    <vehicle id="323" depart="323.00">
        <route edges="-77 -19 -9"/>
    </vehicle>
    <vehicle id="326" depart="326.00">
        <route edges="-64 -17 19 71"/>
    </vehicle>
    <vehicle id="329" depart="329.00">
        <route edges="-11 9 19 71 -64 -17"/>
    </vehicle>
    <vehicle id="333" depart="333.00">
        <route edges="71 -64 -13 -3 9"/>
    </vehicle>
    <vehicle id="336" depart="336.00">
        <route edges="-25 17 -13 -3 9 19"/>
    </vehicle>
    <vehicle id="337" depart="337.00">
        <route edges="71 -64 -17 25"/>
    </vehicle>
    <vehicle id="338" depart="338.00">
        <route edges="-69 65 -38 -17 19 71 -64 -13"/>
    </vehicle>
    <vehicle id="340" depart="340.00">
        <route edges="-38"/>
    </vehicle>
    <vehicle id="341" depart="341.00">
        <route edges="17 38 -65 -15 13"/>
    </vehicle>
    <vehicle id="344" depart="344.00">
        <route edges="-11 9 17 -13 -3 7"/>
    </vehicle>
    <vehicle id="346" depart="346.00">
        <route edges="64 -71 79"/>
    </vehicle>
    <vehicle id="347" depart="347.00">
        <route edges="17 -13 -3 9"/>
    </vehicle>
    <vehicle id="348" depart="348.00">
        <route edges="-69 65 -38 -17 19 71 -64 -13 -3 9 17 38 -65"/>
    </vehicle>
    <vehicle id="354" depart="354.00">
        <route edges="-11 9 17 38 -65"/>
    </vehicle>
    <vehicle id="355" depart="355.00">
        <route edges="9 17 38 -65 -15 13 64 -71"/>
    </vehicle>
    <vehicle id="357" depart="357.00">
        <route edges="-69 65 -38 -17 19 71 -64 -13 -3 9 17"/>
    </vehicle>
    <vehicle id="359" depart="359.00">
        <route edges="-25 17 -13 -3 9 19 71 -64 -17"/>
    </vehicle>
    <vehicle id="365" depart="365.00">
        <route edges="-3 9 17 38"/>
    </vehicle>
    <vehicle id="366" depart="366.00">
        <route edges="-38 -17 19 71 -64 -13 -3 9 17 38 -65"/>
    </vehicle>
    <vehicle id="367" depart="367.00">
        <route edges="-17 19 71 -64 -13 -3 9 17 38 -65 -15 13 64"/>
    </vehicle>
    <vehicle id="369" depart="369.00">
        <route edges="-17 19 71"/>
    </vehicle>
    <vehicle id="373" depart="373.00">
        <route edges="-64 -13 -3 9 17 38 -65 -15 13 64 -71"/>
    </vehicle>
    <vehicle id="374" depart="374.00">
        <route edges="-71 79"/>
    </vehicle>
    <vehicle id="378" depart="378.00">
        <route edges="13 64 -71"/>
    </vehicle>
    <vehicle id="379" depart="379.00">
        <route edges="65 -38 -17 19"/>
    </vehicle>
    <vehicle id="380" depart="380.00">
        <route edges="-19 -9 7"/>
    </vehicle>
    <vehicle id="383" depart="383.00">
        <route edges="-65 -15 13 64 -71"/>
    </vehicle>
    <vehicle id="384" depart="384.00">
        <route edges="13 64 -71 79"/>
    </vehicle>
    <vehicle id="385" depart="385.00">
        <route edges="-38 -17 25 81"/>
    </vehicle>
    <vehicle id="389" depart="389.00">
        <route edges="13"/>
    </vehicle>
    <vehicle id="390" depart="390.00">
        <route edges="-11 9"/>
    </vehicle>
    <vehicle id="391" depart="391.00">
        <route edges="17 -13 -3 9 19 71 -64"/>
    </vehicle>
    <vehicle id="393" depart="393.00">
        <route edges="-69 65 -38 -17 19 71 -64 -13 -3 7"/>
    </vehicle>
    <vehicle id="396" depart="396.00">
        <route edges="-69 65 -38 -17 19 71 -64 -13 -3 9 17"/>
    </vehicle>
    <vehicle id="401" depart="401.00">
        <route edges="-3 9 19 71 -64 -17 25 81"/>
    </vehicle>
    <vehicle id="404" depart="404.00">
        <route edges="-3 9 19 71 -64 -17"/>
    </vehicle>
    <vehicle id="405" depart="405.00">
        <route edges="-77 71 -64 -13 -3 9 17 38 -65 -15 13"/>
    </vehicle>
    <vehicle id="406" depart="406.00">
        <route edges="17 -13 -3 7"/>
    </vehicle>
    <vehicle id="411" depart="411.00">
        <route edges="-3 9 19 71 -64"/>
    </vehicle>
    <vehicle id="412" depart="412.00">
        <route edges="-81 -25 17 38 -65 -15"/>
    </vehicle>
    <vehicle id="413" depart="413.00">
        <route edges="9 17"/>
    </vehicle>
    <vehicle id="415" depart="415.00">
        <route edges="13"/>
    </vehicle>
    <vehicle id="416" depart="416.00">
        <route edges="65 -38 -17 19"/>
    </vehicle>
    <vehicle id="422" depart="422.00">
        <route edges="-9 7"/>
    </vehicle>
    <vehicle id="424" depart="424.00">
        <route edges="-64 -13 -3"/>
    </vehicle>
    <vehicle id="427" depart="427.00">
        <route edges="65 -38 -17 19 71 -64 -13 -3 7"/>
    </vehicle>
    <vehicle id="429" depart="429.00">
        <route edges="71 -64 -17 25 81"/>
    </vehicle>
    <vehicle id="430" depart="430.00">
        <route edges="17 38 -65 -15 13 64 -71 77"/>
    </vehicle>
    <vehicle id="431" depart="431.00">
        <route edges="-11 9 19 71 -64 -17 25"/>
    </vehicle>
    <vehicle id="434" depart="434.00">
        <route edges="19 71 -64 -13 -3 9 17 38"/>
    </vehicle>
    <vehicle id="435" depart="435.00">
        <route edges="-69 65 -38 -17 19"/>
    </vehicle>
    <vehicle id="436" depart="436.00">
        <route edges="-11 9 17 -13"/>
    </vehicle>
    <vehicle id="440" depart="440.00">
        <route edges="-13 -3 9 17 38"/>
    </vehicle>
    <vehicle id="444" depart="444.00">
        <route edges="-25 17 -13"/>
    </vehicle>
    <vehicle id="448" depart="448.00">
        <route edges="-69 65 -38 -17 19 71"/>
    </vehicle>
    <vehicle id="449" depart="449.00">
        <route edges="-17 19"/>
    </vehicle>
    <vehicle id="450" depart="450.00">
        <route edges="-11 9 17 38 -65"/>
    </vehicle>
    <vehicle id="451" depart="451.00">
        <route edges="65 -38 -17 19 71 -64 -13 -3 7"/>
    </vehicle>
    <vehicle id="454" depart="454.00">
        <route edges="-77 -19 25 81"/>
    </vehicle>
    <vehicle id="455" depart="455.00">
        <route edges="-64 -13"/>
    </vehicle>
    <vehicle id="458" depart="458.00">
        <route edges="-69 65 -38 64 -71"/>
    </vehicle>
    <vehicle id="460" depart="460.00">
        <route edges="71 -64 -13 -3 9 17 38"/>
    </vehicle>
    <vehicle id="466" depart="466.00">
        <route edges="-15 13"/>
    </vehicle>
    <vehicle id="467" depart="467.00">
        <route edges="71 -64 -13 -3 9 17 38 -65 -15 13 64 -71"/>
    </vehicle>
    <vehicle id="468" depart="468.00">
        <route edges="-13 -3 9 17 38 -65 69"/>
    </vehicle>
    <vehicle id="469" depart="469.00">
        <route edges="9 19 79"/>
    </vehicle>
    <vehicle id="471" depart="471.00">
        <route edges="71 -64 -13 -3"/>
    </vehicle>
    <vehicle id="475" depart="475.00">
        <route edges="-69 65 -38 -17 19 71 -64 -13 -3"/>
    </vehicle>
    <vehicle id="478" depart="478.00">
        <route edges="71 -64 -13 -3 9 17 38 -65 69"/>
    </vehicle>
    <vehicle id="480" depart="480.00">
        <route edges="-19 -9 7"/>
    </vehicle>
    <vehicle id="481" depart="481.00">
        <route edges="-17 25"/>
    </vehicle>
    <vehicle id="482" depart="482.00">
        <route edges="-81 -25 -9 11"/>
    </vehicle>
    <vehicle id="483" depart="483.00">
        <route edges="9 19 71"/>
    </vehicle>
    <vehicle id="484" depart="484.00">
        <route edges="13 38 -65"/>
    </vehicle>
    <vehicle id="486" depart="486.00">
        <route edges="-81 -25 17 38"/>
    </vehicle>
    <vehicle id="488" depart="488.00">
        <route edges="-81 -25 17 -13 -3"/>
    </vehicle>
    <vehicle id="491" depart="491.00">
        <route edges="-77 71 -64 -13 -3 9 17 38 -65 -15 13 64 -71"/>
    </vehicle>
    <vehicle id="492" depart="492.00">
        <route edges="17 38 -65 -15 13"/>
    </vehicle>
    <vehicle id="497" depart="497.00">
        <route edges="-64 -17"/>
    </vehicle>
    <vehicle id="498" depart="498.00">
        <route edges="-69 65 -38 64 -71 79"/>
    </vehicle>
</routes>
