<?xml version="1.0" encoding="UTF-8"?>
<!-- generated on 2018-06-21 21:51:44.122370 by $Id: random_trips.py 25741 2017-08-30 11:58:01Z behrisch $
  options: ./neighborhood 250 10
-->
<routes xmlns:xsi="http://www.w3.org/2001/XMLSchema-instance" xsi:noNamespaceSchemaLocation="http://sumo.dlr.de/xsd/routes_file.xsd">
    <trip id="0" depart="0.00" from="-25" to="25"/>
    <trip id="1" depart="0.00" from="-11" to="7"/>
    <trip id="2" depart="0.00" from="-19" to="68"/>
    <trip id="3" depart="0.00" from="-19" to="11"/>
    <trip id="4" depart="1.00" from="-11" to="19"/>
    <trip id="5" depart="1.00" from="-19" to="25"/>
    <trip id="6" depart="2.00" from="-19" to="63"/>
    <trip id="7" depart="2.00" from="-63" to="25"/>
    <trip id="8" depart="2.00" from="-68" to="7"/>
    <trip id="9" depart="3.00" from="-19" to="19"/>
    <trip id="10" depart="4.00" from="-7" to="11"/>
    <trip id="11" depart="5.00" from="-7" to="7"/>
    <trip id="12" depart="6.00" from="-25" to="68"/>
    <trip id="13" depart="6.00" from="-25" to="63"/>
    <trip id="14" depart="11.00" from="-25" to="63"/>
    <trip id="15" depart="11.00" from="-7" to="25"/>
    <trip id="16" depart="11.00" from="-11" to="19"/>
    <trip id="17" depart="11.00" from="-7" to="68"/>
    <trip id="18" depart="12.00" from="-25" to="63"/>
    <trip id="19" depart="12.00" from="-7" to="7"/>
    <trip id="20" depart="12.00" from="-25" to="63"/>
    <trip id="21" depart="14.00" from="-25" to="68"/>
    <trip id="22" depart="15.00" from="-11" to="7"/>
    <trip id="23" depart="15.00" from="-7" to="19"/>
    <trip id="24" depart="16.00" from="-11" to="19"/>
    <trip id="25" depart="16.00" from="-7" to="11"/>
    <trip id="26" depart="17.00" from="-11" to="7"/>
    <trip id="27" depart="17.00" from="-25" to="68"/>
    <trip id="28" depart="17.00" from="-63" to="63"/>
    <trip id="29" depart="18.00" from="-25" to="19"/>
    <trip id="30" depart="18.00" from="-25" to="19"/>
    <trip id="31" depart="19.00" from="-7" to="7"/>
    <trip id="32" depart="19.00" from="-7" to="11"/>
    <trip id="33" depart="23.00" from="-68" to="11"/>
    <trip id="34" depart="26.00" from="-7" to="68"/>
    <trip id="35" depart="26.00" from="-68" to="19"/>
    <trip id="36" depart="27.00" from="-19" to="25"/>
    <trip id="37" depart="27.00" from="-19" to="25"/>
    <trip id="38" depart="28.00" from="-63" to="19"/>
    <trip id="39" depart="28.00" from="-25" to="25"/>
    <trip id="40" depart="30.00" from="-68" to="7"/>
    <trip id="41" depart="30.00" from="-11" to="25"/>
    <trip id="42" depart="31.00" from="-63" to="63"/>
    <trip id="43" depart="31.00" from="-19" to="68"/>
    <trip id="44" depart="33.00" from="-68" to="68"/>
    <trip id="45" depart="33.00" from="-25" to="11"/>
    <trip id="46" depart="34.00" from="-11" to="7"/>
    <trip id="47" depart="34.00" from="-11" to="19"/>
    <trip id="48" depart="34.00" from="-7" to="25"/>
    <trip id="49" depart="36.00" from="-11" to="25"/>
    <trip id="50" depart="37.00" from="-7" to="7"/>
    <trip id="51" depart="37.00" from="-19" to="25"/>
    <trip id="52" depart="37.00" from="-7" to="25"/>
    <trip id="53" depart="38.00" from="-63" to="11"/>
    <trip id="54" depart="38.00" from="-7" to="7"/>
    <trip id="55" depart="39.00" from="-11" to="7"/>
    <trip id="56" depart="39.00" from="-7" to="11"/>
    <trip id="57" depart="39.00" from="-25" to="7"/>
    <trip id="58" depart="40.00" from="-63" to="7"/>
    <trip id="59" depart="40.00" from="-19" to="19"/>
    <trip id="60" depart="42.00" from="-68" to="7"/>
    <trip id="61" depart="42.00" from="-7" to="25"/>
    <trip id="62" depart="42.00" from="-7" to="68"/>
    <trip id="63" depart="42.00" from="-25" to="7"/>
    <trip id="64" depart="44.00" from="-19" to="11"/>
    <trip id="65" depart="45.00" from="-68" to="63"/>
    <trip id="66" depart="49.00" from="-68" to="7"/>
    <trip id="67" depart="50.00" from="-63" to="11"/>
    <trip id="68" depart="50.00" from="-63" to="7"/>
    <trip id="69" depart="51.00" from="-11" to="7"/>
    <trip id="70" depart="52.00" from="-63" to="11"/>
    <trip id="71" depart="52.00" from="-11" to="25"/>
    <trip id="72" depart="55.00" from="-63" to="19"/>
    <trip id="73" depart="56.00" from="-63" to="7"/>
    <trip id="74" depart="56.00" from="-25" to="11"/>
    <trip id="75" depart="57.00" from="-11" to="68"/>
    <trip id="76" depart="57.00" from="-19" to="19"/>
    <trip id="77" depart="59.00" from="-63" to="63"/>
    <trip id="78" depart="59.00" from="-63" to="19"/>
    <trip id="79" depart="60.00" from="-25" to="7"/>
    <trip id="80" depart="62.00" from="-63" to="19"/>
    <trip id="81" depart="62.00" from="-7" to="11"/>
    <trip id="82" depart="63.00" from="-7" to="11"/>
    <trip id="83" depart="64.00" from="-25" to="63"/>
    <trip id="84" depart="64.00" from="-63" to="25"/>
    <trip id="85" depart="64.00" from="-7" to="11"/>
    <trip id="86" depart="65.00" from="-25" to="19"/>
    <trip id="87" depart="65.00" from="-68" to="68"/>
    <trip id="88" depart="65.00" from="-7" to="68"/>
    <trip id="89" depart="69.00" from="-19" to="7"/>
    <trip id="90" depart="70.00" from="-7" to="19"/>
    <trip id="91" depart="70.00" from="-68" to="7"/>
    <trip id="92" depart="71.00" from="-19" to="25"/>
    <trip id="93" depart="73.00" from="-7" to="7"/>
    <trip id="94" depart="73.00" from="-63" to="63"/>
    <trip id="95" depart="74.00" from="-19" to="11"/>
    <trip id="96" depart="74.00" from="-68" to="19"/>
    <trip id="97" depart="74.00" from="-25" to="11"/>
    <trip id="98" depart="76.00" from="-7" to="63"/>
    <trip id="99" depart="77.00" from="-68" to="68"/>
    <trip id="100" depart="78.00" from="-68" to="63"/>
    <trip id="101" depart="78.00" from="-19" to="68"/>
    <trip id="102" depart="79.00" from="-25" to="19"/>
    <trip id="103" depart="80.00" from="-63" to="68"/>
    <trip id="104" depart="80.00" from="-25" to="19"/>
    <trip id="105" depart="80.00" from="-19" to="68"/>
    <trip id="106" depart="81.00" from="-11" to="7"/>
    <trip id="107" depart="81.00" from="-11" to="25"/>
    <trip id="108" depart="82.00" from="-63" to="11"/>
    <trip id="109" depart="83.00" from="-11" to="11"/>
    <trip id="110" depart="85.00" from="-7" to="68"/>
    <trip id="111" depart="85.00" from="-25" to="7"/>
    <trip id="112" depart="86.00" from="-63" to="7"/>
    <trip id="113" depart="87.00" from="-19" to="19"/>
    <trip id="114" depart="87.00" from="-68" to="25"/>
    <trip id="115" depart="87.00" from="-68" to="63"/>
    <trip id="116" depart="88.00" from="-68" to="68"/>
    <trip id="117" depart="88.00" from="-63" to="7"/>
    <trip id="118" depart="88.00" from="-11" to="68"/>
    <trip id="119" depart="88.00" from="-7" to="63"/>
    <trip id="120" depart="88.00" from="-68" to="19"/>
    <trip id="121" depart="89.00" from="-25" to="11"/>
    <trip id="122" depart="90.00" from="-63" to="25"/>
    <trip id="123" depart="90.00" from="-19" to="19"/>
    <trip id="124" depart="90.00" from="-19" to="11"/>
    <trip id="125" depart="92.00" from="-25" to="19"/>
    <trip id="126" depart="94.00" from="-7" to="25"/>
    <trip id="127" depart="94.00" from="-11" to="68"/>
    <trip id="128" depart="95.00" from="-11" to="63"/>
    <trip id="129" depart="95.00" from="-68" to="19"/>
    <trip id="130" depart="97.00" from="-7" to="68"/>
    <trip id="131" depart="97.00" from="-63" to="11"/>
    <trip id="132" depart="98.00" from="-7" to="7"/>
    <trip id="133" depart="99.00" from="-25" to="11"/>
    <trip id="134" depart="101.00" from="-63" to="68"/>
    <trip id="135" depart="101.00" from="-68" to="25"/>
    <trip id="136" depart="101.00" from="-25" to="63"/>
    <trip id="137" depart="103.00" from="-25" to="68"/>
    <trip id="138" depart="103.00" from="-68" to="25"/>
    <trip id="139" depart="103.00" from="-63" to="7"/>
    <trip id="140" depart="104.00" from="-19" to="11"/>
    <trip id="141" depart="104.00" from="-11" to="7"/>
    <trip id="142" depart="104.00" from="-7" to="19"/>
    <trip id="143" depart="105.00" from="-25" to="11"/>
    <trip id="144" depart="105.00" from="-19" to="7"/>
    <trip id="145" depart="105.00" from="-63" to="7"/>
    <trip id="146" depart="107.00" from="-19" to="19"/>
    <trip id="147" depart="108.00" from="-11" to="19"/>
    <trip id="148" depart="109.00" from="-63" to="11"/>
    <trip id="149" depart="109.00" from="-68" to="19"/>
    <trip id="150" depart="110.00" from="-25" to="68"/>
    <trip id="151" depart="111.00" from="-63" to="7"/>
    <trip id="152" depart="111.00" from="-25" to="25"/>
    <trip id="153" depart="113.00" from="-11" to="19"/>
    <trip id="154" depart="113.00" from="-11" to="11"/>
    <trip id="155" depart="113.00" from="-68" to="25"/>
    <trip id="156" depart="114.00" from="-7" to="7"/>
    <trip id="157" depart="115.00" from="-11" to="68"/>
    <trip id="158" depart="116.00" from="-7" to="19"/>
    <trip id="159" depart="116.00" from="-63" to="7"/>
    <trip id="160" depart="118.00" from="-11" to="63"/>
    <trip id="161" depart="119.00" from="-19" to="63"/>
    <trip id="162" depart="119.00" from="-25" to="25"/>
    <trip id="163" depart="120.00" from="-63" to="68"/>
    <trip id="164" depart="122.00" from="-19" to="25"/>
    <trip id="165" depart="122.00" from="-19" to="7"/>
    <trip id="166" depart="123.00" from="-25" to="19"/>
    <trip id="167" depart="123.00" from="-11" to="19"/>
    <trip id="168" depart="123.00" from="-63" to="11"/>
    <trip id="169" depart="124.00" from="-25" to="7"/>
    <trip id="170" depart="124.00" from="-68" to="25"/>
    <trip id="171" depart="126.00" from="-19" to="68"/>
    <trip id="172" depart="126.00" from="-19" to="25"/>
    <trip id="173" depart="126.00" from="-11" to="25"/>
    <trip id="174" depart="126.00" from="-63" to="19"/>
    <trip id="175" depart="126.00" from="-19" to="68"/>
    <trip id="176" depart="127.00" from="-25" to="19"/>
    <trip id="177" depart="128.00" from="-25" to="63"/>
    <trip id="178" depart="129.00" from="-19" to="19"/>
    <trip id="179" depart="130.00" from="-63" to="7"/>
    <trip id="180" depart="130.00" from="-68" to="68"/>
    <trip id="181" depart="130.00" from="-25" to="68"/>
    <trip id="182" depart="131.00" from="-63" to="11"/>
    <trip id="183" depart="131.00" from="-63" to="19"/>
    <trip id="184" depart="131.00" from="-63" to="63"/>
    <trip id="185" depart="131.00" from="-19" to="63"/>
    <trip id="186" depart="131.00" from="-19" to="25"/>
    <trip id="187" depart="132.00" from="-19" to="7"/>
    <trip id="188" depart="132.00" from="-19" to="68"/>
    <trip id="189" depart="132.00" from="-25" to="19"/>
    <trip id="190" depart="133.00" from="-7" to="63"/>
    <trip id="191" depart="134.00" from="-11" to="11"/>
    <trip id="192" depart="134.00" from="-19" to="11"/>
    <trip id="193" depart="135.00" from="-25" to="68"/>
    <trip id="194" depart="136.00" from="-7" to="11"/>
    <trip id="195" depart="138.00" from="-68" to="11"/>
    <trip id="196" depart="138.00" from="-19" to="63"/>
    <trip id="197" depart="139.00" from="-19" to="25"/>
    <trip id="198" depart="139.00" from="-68" to="11"/>
    <trip id="199" depart="139.00" from="-25" to="68"/>
    <trip id="200" depart="142.00" from="-11" to="63"/>
    <trip id="201" depart="142.00" from="-11" to="63"/>
    <trip id="202" depart="142.00" from="-19" to="63"/>
    <trip id="203" depart="142.00" from="-25" to="19"/>
    <trip id="204" depart="142.00" from="-19" to="11"/>
    <trip id="205" depart="144.00" from="-63" to="7"/>
    <trip id="206" depart="146.00" from="-7" to="63"/>
    <trip id="207" depart="146.00" from="-11" to="25"/>
    <trip id="208" depart="146.00" from="-25" to="25"/>
    <trip id="209" depart="147.00" from="-68" to="63"/>
    <trip id="210" depart="148.00" from="-63" to="63"/>
    <trip id="211" depart="149.00" from="-68" to="68"/>
    <trip id="212" depart="150.00" from="-11" to="11"/>
    <trip id="213" depart="150.00" from="-11" to="7"/>
    <trip id="214" depart="150.00" from="-63" to="68"/>
    <trip id="215" depart="151.00" from="-63" to="7"/>
    <trip id="216" depart="151.00" from="-25" to="7"/>
    <trip id="217" depart="152.00" from="-68" to="68"/>
    <trip id="218" depart="153.00" from="-19" to="7"/>
    <trip id="219" depart="153.00" from="-25" to="63"/>
    <trip id="220" depart="154.00" from="-63" to="25"/>
    <trip id="221" depart="154.00" from="-63" to="63"/>
    <trip id="222" depart="154.00" from="-68" to="68"/>
    <trip id="223" depart="155.00" from="-25" to="19"/>
    <trip id="224" depart="156.00" from="-63" to="25"/>
    <trip id="225" depart="156.00" from="-63" to="63"/>
    <trip id="226" depart="156.00" from="-63" to="63"/>
    <trip id="227" depart="157.00" from="-7" to="19"/>
    <trip id="228" depart="158.00" from="-19" to="68"/>
    <trip id="229" depart="159.00" from="-63" to="11"/>
    <trip id="230" depart="160.00" from="-19" to="7"/>
    <trip id="231" depart="161.00" from="-11" to="19"/>
    <trip id="232" depart="162.00" from="-11" to="7"/>
    <trip id="233" depart="162.00" from="-7" to="68"/>
    <trip id="234" depart="163.00" from="-25" to="19"/>
    <trip id="235" depart="163.00" from="-63" to="63"/>
    <trip id="236" depart="164.00" from="-68" to="19"/>
    <trip id="237" depart="164.00" from="-7" to="7"/>
    <trip id="238" depart="164.00" from="-11" to="68"/>
    <trip id="239" depart="165.00" from="-11" to="25"/>
    <trip id="240" depart="165.00" from="-19" to="11"/>
    <trip id="241" depart="166.00" from="-68" to="11"/>
    <trip id="242" depart="166.00" from="-7" to="19"/>
    <trip id="243" depart="167.00" from="-63" to="11"/>
    <trip id="244" depart="168.00" from="-25" to="11"/>
    <trip id="245" depart="169.00" from="-25" to="63"/>
    <trip id="246" depart="169.00" from="-7" to="7"/>
    <trip id="247" depart="170.00" from="-19" to="68"/>
    <trip id="248" depart="170.00" from="-11" to="63"/>
    <trip id="249" depart="171.00" from="-68" to="25"/>
    <trip id="250" depart="172.00" from="-11" to="11"/>
    <trip id="251" depart="173.00" from="-68" to="11"/>
    <trip id="252" depart="174.00" from="-7" to="63"/>
    <trip id="253" depart="175.00" from="-11" to="11"/>
    <trip id="254" depart="176.00" from="-63" to="63"/>
    <trip id="255" depart="177.00" from="-19" to="11"/>
    <trip id="256" depart="177.00" from="-25" to="19"/>
    <trip id="257" depart="179.00" from="-63" to="19"/>
    <trip id="258" depart="180.00" from="-19" to="11"/>
    <trip id="259" depart="180.00" from="-68" to="68"/>
    <trip id="260" depart="181.00" from="-19" to="19"/>
    <trip id="261" depart="181.00" from="-7" to="7"/>
    <trip id="262" depart="182.00" from="-19" to="63"/>
    <trip id="263" depart="183.00" from="-63" to="25"/>
    <trip id="264" depart="184.00" from="-25" to="25"/>
    <trip id="265" depart="185.00" from="-7" to="11"/>
    <trip id="266" depart="185.00" from="-25" to="25"/>
    <trip id="267" depart="185.00" from="-19" to="11"/>
    <trip id="268" depart="186.00" from="-11" to="68"/>
    <trip id="269" depart="186.00" from="-68" to="7"/>
    <trip id="270" depart="186.00" from="-68" to="11"/>
    <trip id="271" depart="189.00" from="-25" to="7"/>
    <trip id="272" depart="189.00" from="-63" to="11"/>
    <trip id="273" depart="192.00" from="-25" to="68"/>
    <trip id="274" depart="192.00" from="-19" to="7"/>
</routes>
