<additional xmlns:xsi="http://www.w3.org/2001/XMLSchema-instance" xsi:noNamespaceSchemaLocation="http://sumo.dlr.de/xsd/additional_file.xsd">
    <laneAreaDetector file="e2output.xml" freq="60" friendlyPos="x" id="0_e2" lane="1i_0" length="250" pos="245.15"/>
    <laneAreaDetector file="e2output.xml" freq="60" friendlyPos="x" id="1_e2" lane="2i_0" length="250" pos="245.15"/>
    <laneAreaDetector file="e2output.xml" freq="60" friendlyPos="x" id="2_e2" lane="3i_0" length="250" pos="245.15"/>
    <laneAreaDetector file="e2output.xml" freq="60" friendlyPos="x" id="3_e2" lane="4i_0" length="250" pos="245.15"/>
</additional>
