<?xml version="1.0" encoding="UTF-8"?>

<!-- generated on 06/21/18 23:20:36 by Eclipse SUMO duarouter Version v0_32_0+1428-4ab3f27cbd
<configuration xmlns:xsi="http://www.w3.org/2001/XMLSchema-instance" xsi:noNamespaceSchemaLocation="http://sumo.dlr.de/xsd/duarouterConfiguration.xsd">

    <input>
        <net-file value="./cross/cross.net.xml"/>
        <route-files value="./cross/trips.trips.xml"/>
    </input>

    <output>
        <output-file value="./cross/routes.rou.xml"/>
        <alternatives-output value="./cross/routes.rou.alt.xml"/>
    </output>

    <processing>
        <ignore-errors value="true"/>
    </processing>

    <time>
        <begin value="0"/>
        <end value="76.92307692307692"/>
    </time>

    <report>
        <no-warnings value="true"/>
        <no-step-log value="true"/>
    </report>

</configuration>
-->

<routes xmlns:xsi="http://www.w3.org/2001/XMLSchema-instance" xsi:noNamespaceSchemaLocation="http://sumo.dlr.de/xsd/routes_file.xsd">
    <vehicle id="1" depart="1.00">
        <route edges="54o 54i"/>
    </vehicle>
    <vehicle id="2" depart="1.00">
        <route edges="51o 1i 2o 52i"/>
    </vehicle>
    <vehicle id="3" depart="2.00">
        <route edges="52o 2i 1o 51i"/>
    </vehicle>
    <vehicle id="4" depart="2.00">
        <route edges="54o 4i 3o 53i"/>
    </vehicle>
    <vehicle id="5" depart="4.00">
        <route edges="52o 52i"/>
    </vehicle>
    <vehicle id="8" depart="6.00">
        <route edges="51o 1i 2o 52i"/>
    </vehicle>
    <vehicle id="17" depart="12.00">
        <route edges="51o 51i"/>
    </vehicle>
    <vehicle id="18" depart="13.00">
        <route edges="53o 53i"/>
    </vehicle>
    <vehicle id="19" depart="16.00">
        <route edges="51o 1i 2o 52i"/>
    </vehicle>
    <vehicle id="20" depart="16.00">
        <route edges="53o 53i"/>
    </vehicle>
    <vehicle id="23" depart="16.00">
        <route edges="51o 51i"/>
    </vehicle>
    <vehicle id="27" depart="19.00">
        <route edges="52o 2i 1o 51i"/>
    </vehicle>
    <vehicle id="28" depart="20.00">
        <route edges="52o 52i"/>
    </vehicle>
    <vehicle id="29" depart="20.00">
        <route edges="52o 52i"/>
    </vehicle>
    <vehicle id="30" depart="21.00">
        <route edges="52o 2i 1o 51i"/>
    </vehicle>
    <vehicle id="33" depart="23.00">
        <route edges="51o 51i"/>
    </vehicle>
    <vehicle id="34" depart="23.00">
        <route edges="52o 52i"/>
    </vehicle>
    <vehicle id="35" depart="24.00">
        <route edges="51o 1i 2o 52i"/>
    </vehicle>
    <vehicle id="36" depart="26.00">
        <route edges="52o 52i"/>
    </vehicle>
    <vehicle id="38" depart="26.00">
        <route edges="51o 51i"/>
    </vehicle>
    <vehicle id="39" depart="28.00">
        <route edges="51o 1i 2o 52i"/>
    </vehicle>
    <vehicle id="41" depart="29.00">
        <route edges="53o 3i 4o 54i"/>
    </vehicle>
    <vehicle id="43" depart="30.00">
        <route edges="53o 53i"/>
    </vehicle>
    <vehicle id="49" depart="36.00">
        <route edges="51o 51i"/>
    </vehicle>
    <vehicle id="51" depart="36.00">
        <route edges="54o 4i 3o 53i"/>
    </vehicle>
    <vehicle id="53" depart="36.00">
        <route edges="52o 2i 1o 51i"/>
    </vehicle>
    <vehicle id="57" depart="39.00">
        <route edges="51o 1i 2o 52i"/>
    </vehicle>
    <vehicle id="58" depart="41.00">
        <route edges="53o 53i"/>
    </vehicle>
    <vehicle id="60" depart="44.00">
        <route edges="52o 52i"/>
    </vehicle>
    <vehicle id="63" depart="45.00">
        <route edges="52o 52i"/>
    </vehicle>
    <vehicle id="64" depart="45.00">
        <route edges="51o 51i"/>
    </vehicle>
    <vehicle id="68" depart="47.00">
        <route edges="51o 51i"/>
    </vehicle>
    <vehicle id="70" depart="48.00">
        <route edges="52o 52i"/>
    </vehicle>
    <vehicle id="73" depart="50.00">
        <route edges="54o 4i 3o 53i"/>
    </vehicle>
    <vehicle id="76" depart="55.00">
        <route edges="53o 3i 4o 54i"/>
    </vehicle>
    <vehicle id="77" depart="56.00">
        <route edges="53o 3i 4o 54i"/>
    </vehicle>
    <vehicle id="82" depart="60.00">
        <route edges="54o 54i"/>
    </vehicle>
    <vehicle id="84" depart="61.00">
        <route edges="53o 3i 4o 54i"/>
    </vehicle>
    <vehicle id="88" depart="62.00">
        <route edges="53o 3i 4o 54i"/>
    </vehicle>
    <vehicle id="89" depart="63.00">
        <route edges="51o 51i"/>
    </vehicle>
    <vehicle id="90" depart="63.00">
        <route edges="53o 3i 4o 54i"/>
    </vehicle>
    <vehicle id="91" depart="65.00">
        <route edges="53o 3i 4o 54i"/>
    </vehicle>
    <vehicle id="92" depart="66.00">
        <route edges="54o 54i"/>
    </vehicle>
    <vehicle id="95" depart="68.00">
        <route edges="54o 54i"/>
    </vehicle>
    <vehicle id="97" depart="72.00">
        <route edges="52o 2i 1o 51i"/>
    </vehicle>
    <vehicle id="98" depart="72.00">
        <route edges="53o 53i"/>
    </vehicle>
    <vehicle id="104" depart="74.00">
        <route edges="54o 54i"/>
    </vehicle>
    <vehicle id="105" depart="74.00">
        <route edges="52o 2i 1o 51i"/>
    </vehicle>
</routes>
