<?xml version="1.0" encoding="UTF-8"?>
<!-- generated on 2018-06-21 23:20:35.857901 by $Id: random_trips.py 25741 2017-08-30 11:58:01Z behrisch $
  options: ./cross 100
-->
<routes xmlns:xsi="http://www.w3.org/2001/XMLSchema-instance" xsi:noNamespaceSchemaLocation="http://sumo.dlr.de/xsd/routes_file.xsd">
    <trip id="0" depart="0.00" from="51o" to="54i"/>
    <trip id="1" depart="1.00" from="54o" to="54i"/>
    <trip id="2" depart="1.00" from="51o" to="52i"/>
    <trip id="3" depart="2.00" from="52o" to="51i"/>
    <trip id="4" depart="2.00" from="54o" to="53i"/>
    <trip id="5" depart="4.00" from="52o" to="52i"/>
    <trip id="6" depart="5.00" from="54o" to="52i"/>
    <trip id="7" depart="6.00" from="54o" to="52i"/>
    <trip id="8" depart="6.00" from="51o" to="52i"/>
    <trip id="9" depart="6.00" from="51o" to="53i"/>
    <trip id="10" depart="6.00" from="54o" to="51i"/>
    <trip id="11" depart="7.00" from="52o" to="54i"/>
    <trip id="12" depart="8.00" from="51o" to="54i"/>
    <trip id="13" depart="9.00" from="51o" to="53i"/>
    <trip id="14" depart="10.00" from="54o" to="51i"/>
    <trip id="15" depart="10.00" from="52o" to="53i"/>
    <trip id="16" depart="12.00" from="51o" to="53i"/>
    <trip id="17" depart="12.00" from="51o" to="51i"/>
    <trip id="18" depart="13.00" from="53o" to="53i"/>
    <trip id="19" depart="16.00" from="51o" to="52i"/>
    <trip id="20" depart="16.00" from="53o" to="53i"/>
    <trip id="21" depart="16.00" from="53o" to="51i"/>
    <trip id="22" depart="16.00" from="53o" to="52i"/>
    <trip id="23" depart="16.00" from="51o" to="51i"/>
    <trip id="24" depart="17.00" from="53o" to="51i"/>
    <trip id="25" depart="17.00" from="53o" to="52i"/>
    <trip id="26" depart="18.00" from="53o" to="51i"/>
    <trip id="27" depart="19.00" from="52o" to="51i"/>
    <trip id="28" depart="20.00" from="52o" to="52i"/>
    <trip id="29" depart="20.00" from="52o" to="52i"/>
    <trip id="30" depart="21.00" from="52o" to="51i"/>
    <trip id="31" depart="22.00" from="51o" to="54i"/>
    <trip id="32" depart="22.00" from="52o" to="53i"/>
    <trip id="33" depart="23.00" from="51o" to="51i"/>
    <trip id="34" depart="23.00" from="52o" to="52i"/>
    <trip id="35" depart="24.00" from="51o" to="52i"/>
    <trip id="36" depart="26.00" from="52o" to="52i"/>
    <trip id="37" depart="26.00" from="51o" to="54i"/>
    <trip id="38" depart="26.00" from="51o" to="51i"/>
    <trip id="39" depart="28.00" from="51o" to="52i"/>
    <trip id="40" depart="28.00" from="53o" to="52i"/>
    <trip id="41" depart="29.00" from="53o" to="54i"/>
    <trip id="42" depart="29.00" from="53o" to="52i"/>
    <trip id="43" depart="30.00" from="53o" to="53i"/>
    <trip id="44" depart="30.00" from="54o" to="51i"/>
    <trip id="45" depart="31.00" from="51o" to="53i"/>
    <trip id="46" depart="32.00" from="53o" to="51i"/>
    <trip id="47" depart="32.00" from="51o" to="53i"/>
    <trip id="48" depart="34.00" from="51o" to="54i"/>
    <trip id="49" depart="36.00" from="51o" to="51i"/>
    <trip id="50" depart="36.00" from="54o" to="51i"/>
    <trip id="51" depart="36.00" from="54o" to="53i"/>
    <trip id="52" depart="36.00" from="52o" to="53i"/>
    <trip id="53" depart="36.00" from="52o" to="51i"/>
    <trip id="54" depart="37.00" from="51o" to="53i"/>
    <trip id="55" depart="37.00" from="53o" to="52i"/>
    <trip id="56" depart="38.00" from="53o" to="51i"/>
    <trip id="57" depart="39.00" from="51o" to="52i"/>
    <trip id="58" depart="41.00" from="53o" to="53i"/>
    <trip id="59" depart="41.00" from="54o" to="51i"/>
    <trip id="60" depart="44.00" from="52o" to="52i"/>
    <trip id="61" depart="44.00" from="52o" to="54i"/>
    <trip id="62" depart="45.00" from="53o" to="51i"/>
    <trip id="63" depart="45.00" from="52o" to="52i"/>
    <trip id="64" depart="45.00" from="51o" to="51i"/>
    <trip id="65" depart="45.00" from="54o" to="52i"/>
    <trip id="66" depart="46.00" from="53o" to="51i"/>
    <trip id="67" depart="46.00" from="51o" to="53i"/>
    <trip id="68" depart="47.00" from="51o" to="51i"/>
    <trip id="69" depart="48.00" from="53o" to="52i"/>
    <trip id="70" depart="48.00" from="52o" to="52i"/>
    <trip id="71" depart="48.00" from="51o" to="53i"/>
    <trip id="72" depart="49.00" from="53o" to="51i"/>
    <trip id="73" depart="50.00" from="54o" to="53i"/>
    <trip id="74" depart="52.00" from="54o" to="52i"/>
    <trip id="75" depart="54.00" from="54o" to="52i"/>
    <trip id="76" depart="55.00" from="53o" to="54i"/>
    <trip id="77" depart="56.00" from="53o" to="54i"/>
    <trip id="78" depart="56.00" from="52o" to="53i"/>
    <trip id="79" depart="56.00" from="53o" to="52i"/>
    <trip id="80" depart="57.00" from="51o" to="54i"/>
    <trip id="81" depart="60.00" from="54o" to="51i"/>
    <trip id="82" depart="60.00" from="54o" to="54i"/>
    <trip id="83" depart="60.00" from="51o" to="54i"/>
    <trip id="84" depart="61.00" from="53o" to="54i"/>
    <trip id="85" depart="61.00" from="54o" to="51i"/>
    <trip id="86" depart="62.00" from="53o" to="52i"/>
    <trip id="87" depart="62.00" from="53o" to="51i"/>
    <trip id="88" depart="62.00" from="53o" to="54i"/>
    <trip id="89" depart="63.00" from="51o" to="51i"/>
    <trip id="90" depart="63.00" from="53o" to="54i"/>
    <trip id="91" depart="65.00" from="53o" to="54i"/>
    <trip id="92" depart="66.00" from="54o" to="54i"/>
    <trip id="93" depart="66.00" from="52o" to="53i"/>
    <trip id="94" depart="67.00" from="52o" to="53i"/>
    <trip id="95" depart="68.00" from="54o" to="54i"/>
    <trip id="96" depart="71.00" from="54o" to="52i"/>
    <trip id="97" depart="72.00" from="52o" to="51i"/>
    <trip id="98" depart="72.00" from="53o" to="53i"/>
    <trip id="99" depart="73.00" from="52o" to="54i"/>
    <trip id="100" depart="73.00" from="54o" to="51i"/>
    <trip id="101" depart="74.00" from="53o" to="51i"/>
    <trip id="102" depart="74.00" from="53o" to="51i"/>
    <trip id="103" depart="74.00" from="53o" to="52i"/>
    <trip id="104" depart="74.00" from="54o" to="54i"/>
    <trip id="105" depart="74.00" from="52o" to="51i"/>
    <trip id="106" depart="76.00" from="54o" to="52i"/>
    <trip id="107" depart="76.00" from="53o" to="51i"/>
</routes>
