<?xml version="1.0" encoding="UTF-8"?>

<!-- generated on 06/21/18 21:38:28 by Eclipse SUMO netgenerate Version v0_32_0+1445-5aa8ffc0a4
<configuration xmlns:xsi="http://www.w3.org/2001/XMLSchema-instance" xsi:noNamespaceSchemaLocation="http://sumo.dlr.de/xsd/netgenerateConfiguration.xsd">

    <random_network>
        <rand value="true"/>
        <rand.iterations value="40"/>
        <rand.neighbor-dist1 value="2"/>
        <rand.neighbor-dist2 value="1"/>
        <rand.neighbor-dist3 value="4"/>
        <rand.neighbor-dist4 value="1"/>
        <rand.neighbor-dist5 value="3"/>
        <rand.neighbor-dist6 value="3"/>
        <rand.random-lanenumber value="true"/>
    </random_network>

    <output>
        <output-file value="./city/city.net.xml"/>
    </output>

    <processing>
        <no-turnarounds value="true"/>
    </processing>

    <building_defaults>
        <default.lanenumber value="2"/>
        <default-junction-type value="traffic_light_right_on_red"/>
    </building_defaults>

</configuration>
-->

<net version="0.27" xmlns:xsi="http://www.w3.org/2001/XMLSchema-instance" xsi:noNamespaceSchemaLocation="http://sumo.dlr.de/xsd/net_file.xsd">

    <location netOffset="444.67,792.80" convBoundary="0.00,0.00,1408.42,1004.26" origBoundary="-444.67,-792.80,963.75,211.46" projParameter="!"/>

    <edge id=":1_0" function="internal">
        <lane id=":1_0_0" index="0" speed="13.90" length="6.58" shape="440.00,801.13 439.74,798.93 439.07,797.52 437.97,796.88 436.44,797.03"/>
    </edge>
    <edge id=":1_1" function="internal">
        <lane id=":1_1_0" index="0" speed="13.90" length="13.87" shape="440.00,801.13 439.94,797.12 439.81,794.37 439.40,791.65 438.52,787.75"/>
        <lane id=":1_1_1" index="1" speed="13.90" length="13.87" shape="443.20,801.08 443.14,796.86 442.99,793.97 442.55,791.11 441.63,787.00"/>
    </edge>
    <edge id=":1_3" function="internal">
        <lane id=":1_3_0" index="0" speed="13.90" length="6.13" shape="443.20,801.08 443.75,796.75 444.66,795.23"/>
    </edge>
    <edge id=":1_14" function="internal">
        <lane id=":1_14_0" index="0" speed="13.90" length="9.66" shape="444.66,795.23 445.56,793.72 448.64,791.97 452.97,791.52"/>
    </edge>
    <edge id=":1_4" function="internal">
        <lane id=":1_4_0" index="0" speed="13.90" length="5.06" shape="452.73,797.91 451.34,798.06 450.35,798.62 449.77,799.59 449.60,800.98"/>
    </edge>
    <edge id=":1_5" function="internal">
        <lane id=":1_5_0" index="0" speed="13.90" length="16.41" shape="452.73,797.91 447.42,797.44 443.32,796.80 439.86,796.50 436.44,797.03"/>
    </edge>
    <edge id=":1_6" function="internal">
        <lane id=":1_6_0" index="0" speed="13.90" length="6.41" shape="452.85,794.71 448.60,794.10 446.67,793.22"/>
    </edge>
    <edge id=":1_15" function="internal">
        <lane id=":1_15_0" index="0" speed="13.90" length="8.32" shape="446.67,793.22 445.32,792.61 442.99,790.24 441.63,787.00"/>
    </edge>
    <edge id=":1_7" function="internal">
        <lane id=":1_7_0" index="0" speed="13.90" length="6.38" shape="447.85,785.51 448.42,786.67 449.48,787.53 451.04,788.08 453.10,788.32"/>
    </edge>
    <edge id=":1_8" function="internal">
        <lane id=":1_8_0" index="0" speed="13.90" length="15.28" shape="447.85,785.51 448.87,790.02 449.36,793.16 449.53,796.34 449.60,800.98"/>
        <lane id=":1_8_1" index="1" speed="13.90" length="15.28" shape="444.74,786.25 445.71,790.57 446.17,793.56 446.33,796.60 446.40,801.03"/>
    </edge>
    <edge id=":1_10" function="internal">
        <lane id=":1_10_0" index="0" speed="13.90" length="5.25" shape="444.74,786.25 444.91,789.79 444.21,791.35"/>
    </edge>
    <edge id=":1_16" function="internal">
        <lane id=":1_16_0" index="0" speed="13.90" length="9.96" shape="444.21,791.35 443.58,792.76 440.76,795.18 436.44,797.03"/>
    </edge>
    <edge id=":1_11" function="internal">
        <lane id=":1_11_0" index="0" speed="13.90" length="7.77" shape="435.49,793.97 437.26,793.10 438.35,791.76 438.77,789.98 438.52,787.75"/>
    </edge>
    <edge id=":1_12" function="internal">
        <lane id=":1_12_0" index="0" speed="13.90" length="17.76" shape="435.49,793.97 439.00,792.92 442.72,792.06 447.19,791.55 452.97,791.52"/>
    </edge>
    <edge id=":1_13" function="internal">
        <lane id=":1_13_0" index="0" speed="13.90" length="9.95" shape="435.49,793.97 440.20,793.16 443.59,794.07 444.62,795.38"/>
    </edge>
    <edge id=":1_17" function="internal">
        <lane id=":1_17_0" index="0" speed="13.90" length="6.07" shape="444.62,795.38 445.65,796.69 446.40,801.03"/>
    </edge>
    <edge id=":10_0" function="internal">
        <lane id=":10_0_0" index="0" speed="13.90" length="4.85" shape="284.54,844.17 283.30,844.40 282.14,844.33 281.03,843.93 279.99,843.23"/>
    </edge>
    <edge id=":10_1" function="internal">
        <lane id=":10_1_0" index="0" speed="13.90" length="1.62" shape="282.07,840.80 282.42,841.03 282.79,841.16 283.18,841.19 283.59,841.11"/>
    </edge>
    <edge id=":12_0" function="internal">
        <lane id=":12_0_0" index="0" speed="13.90" length="15.75" shape="521.76,622.43 519.08,619.75 515.72,617.60 512.06,615.87 508.43,614.40"/>
    </edge>
    <edge id=":12_1" function="internal">
        <lane id=":12_1_0" index="0" speed="13.90" length="15.83" shape="521.76,622.43 519.86,619.54 518.43,616.50 517.20,612.79 515.89,607.87"/>
    </edge>
    <edge id=":12_2" function="internal">
        <lane id=":12_2_0" index="0" speed="13.90" length="6.40" shape="521.76,622.43 520.49,619.61 520.94,616.90 521.29,616.47"/>
    </edge>
    <edge id=":12_12" function="internal">
        <lane id=":12_12_0" index="0" speed="13.90" length="7.46" shape="521.29,616.47 523.11,614.30 527.01,611.81"/>
    </edge>
    <edge id=":12_3" function="internal">
        <lane id=":12_3_0" index="0" speed="13.90" length="8.15" shape="528.46,614.66 525.90,616.21 524.35,617.70 523.83,619.14 524.33,620.53"/>
    </edge>
    <edge id=":12_4" function="internal">
        <lane id=":12_4_0" index="0" speed="13.90" length="20.64" shape="528.46,614.66 524.03,616.27 519.21,616.76 514.01,616.14 508.43,614.40"/>
    </edge>
    <edge id=":12_5" function="internal">
        <lane id=":12_5_0" index="0" speed="13.90" length="8.75" shape="528.46,614.66 524.07,616.08 520.51,615.42 520.14,615.06"/>
    </edge>
    <edge id=":12_13" function="internal">
        <lane id=":12_13_0" index="0" speed="13.90" length="8.53" shape="520.14,615.06 517.78,612.68 515.89,607.87"/>
    </edge>
    <edge id=":12_6" function="internal">
        <lane id=":12_6_0" index="0" speed="13.90" length="8.45" shape="522.09,606.30 523.07,609.31 524.22,611.23 525.53,612.07 527.01,611.81"/>
    </edge>
    <edge id=":12_7" function="internal">
        <lane id=":12_7_0" index="0" speed="13.90" length="14.58" shape="522.09,606.30 522.77,610.91 522.75,614.53 522.97,617.59 524.33,620.53"/>
    </edge>
    <edge id=":12_8" function="internal">
        <lane id=":12_8_0" index="0" speed="13.90" length="6.34" shape="518.99,607.09 519.54,612.34 519.04,613.28"/>
    </edge>
    <edge id=":12_14" function="internal">
        <lane id=":12_14_0" index="0" speed="13.90" length="12.11" shape="519.04,613.28 517.96,615.31 514.26,616.00 508.43,614.40"/>
    </edge>
    <edge id=":12_9" function="internal">
        <lane id=":12_9_0" index="0" speed="13.90" length="6.09" shape="509.61,611.43 511.43,611.89 512.56,611.59 513.01,610.50 512.79,608.65"/>
    </edge>
    <edge id=":12_10" function="internal">
        <lane id=":12_10_0" index="0" speed="13.90" length="17.92" shape="509.61,611.43 514.53,612.97 519.06,613.55 523.22,613.17 527.01,611.81"/>
    </edge>
    <edge id=":12_11" function="internal">
        <lane id=":12_11_0" index="0" speed="13.90" length="17.47" shape="509.61,611.43 513.46,613.06 517.60,615.16 521.43,617.67 524.33,620.53"/>
    </edge>
    <edge id=":178_0" function="internal">
        <lane id=":178_0_0" index="0" speed="13.90" length="20.95" shape="928.85,836.76 926.31,842.44 924.24,846.58 921.56,850.28 917.23,854.65"/>
        <lane id=":178_0_1" index="1" speed="13.90" length="20.95" shape="925.94,835.42 923.52,840.94 921.70,844.73 919.28,848.08 915.06,852.30"/>
    </edge>
    <edge id=":178_2" function="internal">
        <lane id=":178_2_0" index="0" speed="13.90" length="7.50" shape="925.94,835.42 922.56,840.81 921.56,841.35"/>
    </edge>
    <edge id=":178_8" function="internal">
        <lane id=":178_8_0" index="0" speed="13.90" length="13.63" shape="921.56,841.35 918.87,842.83 914.89,841.48 910.62,836.78"/>
    </edge>
    <edge id=":178_3" function="internal">
        <lane id=":178_3_0" index="0" speed="13.90" length="5.85" shape="915.88,833.13 917.06,834.44 918.17,834.81 919.19,834.25 920.13,832.76"/>
    </edge>
    <edge id=":178_4" function="internal">
        <lane id=":178_4_0" index="0" speed="13.90" length="19.08" shape="913.25,834.95 916.38,840.39 917.72,845.10 917.28,849.07 915.06,852.30"/>
    </edge>
    <edge id=":178_5" function="internal">
        <lane id=":178_5_0" index="0" speed="13.90" length="9.96" shape="910.73,847.59 911.35,846.29 911.11,844.36 909.98,841.80 907.98,838.60"/>
    </edge>
    <edge id=":178_6" function="internal">
        <lane id=":178_6_0" index="0" speed="13.90" length="18.42" shape="910.73,847.59 914.41,843.89 916.48,840.94 918.02,837.61 920.13,832.76"/>
        <lane id=":178_6_1" index="1" speed="13.90" length="18.42" shape="912.89,849.94 916.85,845.98 919.09,842.84 920.77,839.28 923.03,834.09"/>
    </edge>
    <edge id=":18_0" function="internal">
        <lane id=":18_0_0" index="0" speed="13.90" length="12.46" shape="839.86,740.25 836.93,736.33 834.48,733.67 832.49,732.29 830.96,732.17"/>
    </edge>
    <edge id=":18_1" function="internal">
        <lane id=":18_1_0" index="0" speed="13.90" length="23.78" shape="839.86,740.25 836.15,734.06 833.31,728.16 831.00,723.05 828.84,719.21"/>
    </edge>
    <edge id=":18_2" function="internal">
        <lane id=":18_2_0" index="0" speed="13.90" length="23.24" shape="842.49,738.43 839.62,733.22 838.09,727.78 837.88,722.13 839.02,716.25"/>
    </edge>
    <edge id=":18_3" function="internal">
        <lane id=":18_3_0" index="0" speed="13.90" length="14.04" shape="842.49,738.43 839.84,733.19 839.95,729.12 842.84,726.22"/>
    </edge>
    <edge id=":18_20" function="internal">
        <lane id=":18_20_0" index="0" speed="13.90" length="5.91" shape="842.84,726.22 848.49,724.49"/>
    </edge>
    <edge id=":18_4" function="internal">
        <lane id=":18_4_0" index="0" speed="13.90" length="5.72" shape="849.52,730.81 847.88,731.30 847.04,732.13 847.00,733.29 847.75,734.79"/>
    </edge>
    <edge id=":18_5" function="internal">
        <lane id=":18_5_0" index="0" speed="13.90" length="18.67" shape="849.52,730.81 843.40,731.39 838.54,731.35 834.53,731.38 830.96,732.17"/>
    </edge>
    <edge id=":18_6" function="internal">
        <lane id=":18_6_0" index="0" speed="13.90" length="23.10" shape="849.01,727.65 843.04,727.88 837.69,726.56 832.95,723.66 828.84,719.21"/>
    </edge>
    <edge id=":18_7" function="internal">
        <lane id=":18_7_0" index="0" speed="13.90" length="19.99" shape="849.01,727.65 843.09,727.79 839.46,725.94 838.10,722.09 839.02,716.25"/>
    </edge>
    <edge id=":18_8" function="internal">
        <lane id=":18_8_0" index="0" speed="13.90" length="5.68" shape="845.15,718.10 844.89,719.75 845.27,720.85 846.30,721.37 847.98,721.33"/>
    </edge>
    <edge id=":18_9" function="internal">
        <lane id=":18_9_0" index="0" speed="13.90" length="17.49" shape="845.15,718.10 844.29,722.52 844.44,726.78 845.59,730.86 847.75,734.79"/>
    </edge>
    <edge id=":18_10" function="internal">
        <lane id=":18_10_0" index="0" speed="13.90" length="10.40" shape="845.15,718.10 843.19,722.54 840.17,726.37 839.65,726.78"/>
    </edge>
    <edge id=":18_11" function="internal">
        <lane id=":18_11_0" index="0" speed="13.90" length="6.18" shape="842.08,717.17 839.64,722.67 839.51,722.77"/>
    </edge>
    <edge id=":18_21" function="internal">
        <lane id=":18_21_0" index="0" speed="13.90" length="10.27" shape="839.65,726.78 836.10,729.58 830.96,732.17"/>
    </edge>
    <edge id=":18_22" function="internal">
        <lane id=":18_22_0" index="0" speed="13.90" length="13.47" shape="839.51,722.77 836.62,724.84 833.02,723.69 828.84,719.21"/>
    </edge>
    <edge id=":18_12" function="internal">
        <lane id=":18_12_0" index="0" speed="13.90" length="7.09" shape="831.42,717.33 832.75,718.63 833.95,718.74 835.01,717.64 835.95,715.33"/>
    </edge>
    <edge id=":18_13" function="internal">
        <lane id=":18_13_0" index="0" speed="13.90" length="17.89" shape="831.42,717.33 834.09,719.82 837.74,721.32 842.37,721.82 847.98,721.33"/>
    </edge>
    <edge id=":18_14" function="internal">
        <lane id=":18_14_0" index="0" speed="13.90" length="23.65" shape="831.42,717.33 845.12,736.61"/>
    </edge>
    <edge id=":18_15" function="internal">
        <lane id=":18_15_0" index="0" speed="13.90" length="17.74" shape="831.42,717.33 834.49,722.51 835.43,726.71 834.26,729.93 830.96,732.17"/>
    </edge>
    <edge id=":18_16" function="internal">
        <lane id=":18_16_0" index="0" speed="13.90" length="11.69" shape="829.77,729.20 831.55,727.84 831.99,725.72 831.08,722.84 828.84,719.21"/>
    </edge>
    <edge id=":18_17" function="internal">
        <lane id=":18_17_0" index="0" speed="13.90" length="15.36" shape="829.77,729.20 831.01,727.99 832.46,725.27 834.11,721.05 835.95,715.33"/>
    </edge>
    <edge id=":18_18" function="internal">
        <lane id=":18_18_0" index="0" speed="13.90" length="19.35" shape="829.77,729.20 833.31,727.90 837.30,726.72 842.20,725.62 848.49,724.49"/>
    </edge>
    <edge id=":18_19" function="internal">
        <lane id=":18_19_0" index="0" speed="13.90" length="9.19" shape="829.77,729.20 833.72,728.46 837.60,729.44 838.55,730.12"/>
    </edge>
    <edge id=":18_23" function="internal">
        <lane id=":18_23_0" index="0" speed="13.90" length="9.30" shape="838.55,730.12 841.40,732.16 845.12,736.61"/>
    </edge>
    <edge id=":2_0" function="internal">
        <lane id=":2_0_0" index="0" speed="13.90" length="22.45" shape="387.76,576.39 387.28,570.32 389.41,566.96 394.14,566.33 401.47,568.41"/>
    </edge>
    <edge id=":2_1" function="internal">
        <lane id=":2_1_0" index="0" speed="13.90" length="6.06" shape="400.29,571.38 398.49,570.92 397.36,571.22 396.90,572.30 397.10,574.14"/>
    </edge>
    <edge id=":2_2" function="internal">
        <lane id=":2_2_0" index="0" speed="13.90" length="10.18" shape="400.29,571.38 396.93,570.42 394.76,570.69 393.78,572.18 393.99,574.89"/>
    </edge>
    <edge id=":202_0" function="internal">
        <lane id=":202_0_0" index="0" speed="13.90" length="18.07" shape="991.84,703.03 989.02,705.04 987.10,708.35 985.38,712.84 983.12,718.37"/>
    </edge>
    <edge id=":202_1" function="internal">
        <lane id=":202_1_0" index="0" speed="13.90" length="21.10" shape="991.84,703.03 988.04,704.30 983.52,705.49 978.03,706.66 971.32,707.85"/>
    </edge>
    <edge id=":202_2" function="internal">
        <lane id=":202_2_0" index="0" speed="13.90" length="20.52" shape="970.30,701.53 976.99,700.87 982.45,700.84 986.94,700.78 990.71,700.03"/>
    </edge>
    <edge id=":202_3" function="internal">
        <lane id=":202_3_0" index="0" speed="13.90" length="21.97" shape="970.81,704.69 977.50,704.47 981.30,706.46 982.21,710.65 980.22,717.04"/>
    </edge>
    <edge id=":202_4" function="internal">
        <lane id=":202_4_0" index="0" speed="13.90" length="5.99" shape="974.40,714.37 974.94,712.63 974.69,711.49 973.66,710.95 971.83,711.00"/>
    </edge>
    <edge id=":202_5" function="internal">
        <lane id=":202_5_0" index="0" speed="13.90" length="6.61" shape="977.31,715.71 980.40,709.86"/>
    </edge>
    <edge id=":202_6" function="internal">
        <lane id=":202_6_0" index="0" speed="13.90" length="14.49" shape="980.40,709.86 980.50,709.67 983.82,705.12 987.23,701.94 990.71,700.03"/>
    </edge>
    <edge id=":24_0" function="internal">
        <lane id=":24_0_0" index="0" speed="13.90" length="17.15" shape="779.89,981.00 776.75,982.75 773.44,982.35 769.98,979.80 766.36,975.11"/>
    </edge>
    <edge id=":24_1" function="internal">
        <lane id=":24_1_0" index="0" speed="13.90" length="5.22" shape="769.05,973.38 770.01,974.48 771.05,974.95 772.18,974.76 773.39,973.94"/>
    </edge>
    <edge id=":24_2" function="internal">
        <lane id=":24_2_0" index="0" speed="13.90" length="8.27" shape="769.05,973.38 770.80,975.66 772.47,976.90 774.06,977.11 775.56,976.29"/>
    </edge>
    <edge id=":310_0" function="internal">
        <lane id=":310_0_0" index="0" speed="13.90" length="6.47" shape="368.88,418.34 368.58,416.32 367.84,415.39 366.66,415.55 365.04,416.80"/>
    </edge>
    <edge id=":310_1" function="internal">
        <lane id=":310_1_0" index="0" speed="13.90" length="20.78" shape="368.88,418.34 368.49,410.18 367.89,404.06 367.06,399.97 366.02,397.94"/>
    </edge>
    <edge id=":310_2" function="internal">
        <lane id=":310_2_0" index="0" speed="13.90" length="24.85" shape="368.88,418.34 369.40,411.03 371.00,404.36 373.05,398.70 374.89,394.44"/>
    </edge>
    <edge id=":310_3" function="internal">
        <lane id=":310_3_0" index="0" speed="13.90" length="23.40" shape="372.08,418.25 372.67,410.46 375.02,405.92 379.12,404.61 384.98,406.54"/>
    </edge>
    <edge id=":310_4" function="internal">
        <lane id=":310_4_0" index="0" speed="13.90" length="8.56" shape="381.99,412.20 380.37,411.83 379.24,412.67 378.61,414.75 378.47,418.05"/>
    </edge>
    <edge id=":310_5" function="internal">
        <lane id=":310_5_0" index="0" speed="13.90" length="18.85" shape="381.99,412.20 377.95,410.92 373.78,411.25 369.48,413.21 365.04,416.80"/>
    </edge>
    <edge id=":310_6" function="internal">
        <lane id=":310_6_0" index="0" speed="13.90" length="21.54" shape="381.99,412.20 376.29,408.47 372.09,404.56 368.85,400.90 366.02,397.94"/>
    </edge>
    <edge id=":310_7" function="internal">
        <lane id=":310_7_0" index="0" speed="13.90" length="5.93" shape="383.49,409.37 378.52,406.13"/>
    </edge>
    <edge id=":310_20" function="internal">
        <lane id=":310_20_0" index="0" speed="13.90" length="13.24" shape="378.52,406.13 378.31,405.99 375.15,402.38 374.01,398.53 374.89,394.44"/>
    </edge>
    <edge id=":310_8" function="internal">
        <lane id=":310_8_0" index="0" speed="13.90" length="12.36" shape="377.81,395.76 377.89,397.28 379.36,399.11 382.22,401.26 386.47,403.71"/>
    </edge>
    <edge id=":310_9" function="internal">
        <lane id=":310_9_0" index="0" speed="13.90" length="22.44" shape="377.81,395.76 377.01,399.76 377.26,404.87 377.96,410.99 378.47,418.05"/>
    </edge>
    <edge id=":310_10" function="internal">
        <lane id=":310_10_0" index="0" speed="13.90" length="24.11" shape="377.81,395.76 375.61,399.63 372.22,404.22 367.88,409.27 362.81,414.51"/>
    </edge>
    <edge id=":310_11" function="internal">
        <lane id=":310_11_0" index="0" speed="13.90" length="14.88" shape="377.81,395.76 375.56,399.27 372.84,400.81 369.66,400.36 366.02,397.94"/>
    </edge>
    <edge id=":310_12" function="internal">
        <lane id=":310_12_0" index="0" speed="13.90" length="8.49" shape="368.14,395.54 370.24,396.95 372.07,397.24 373.62,396.41 374.89,394.44"/>
    </edge>
    <edge id=":310_13" function="internal">
        <lane id=":310_13_0" index="0" speed="13.90" length="20.14" shape="368.14,395.54 371.34,397.55 375.39,399.11 380.40,400.93 386.47,403.71"/>
    </edge>
    <edge id=":310_14" function="internal">
        <lane id=":310_14_0" index="0" speed="13.90" length="4.36" shape="368.14,395.54 370.88,398.92"/>
    </edge>
    <edge id=":310_15" function="internal">
        <lane id=":310_15_0" index="0" speed="13.90" length="9.35" shape="368.14,395.54 370.58,399.17 370.51,403.55 370.24,404.08"/>
    </edge>
    <edge id=":310_21" function="internal">
        <lane id=":310_21_0" index="0" speed="13.90" length="19.93" shape="370.88,398.92 371.07,399.15 373.24,404.12 374.64,410.45 375.28,418.15"/>
    </edge>
    <edge id=":310_22" function="internal">
        <lane id=":310_22_0" index="0" speed="13.90" length="12.90" shape="370.24,404.08 367.92,408.66 362.81,414.51"/>
    </edge>
    <edge id=":310_16" function="internal">
        <lane id=":310_16_0" index="0" speed="13.90" length="14.94" shape="358.34,409.93 362.60,405.48 365.31,402.00 366.44,399.49 366.02,397.94"/>
    </edge>
    <edge id=":310_17" function="internal">
        <lane id=":310_17_0" index="0" speed="13.90" length="22.76" shape="358.34,409.93 363.65,405.20 368.53,401.28 372.45,397.80 374.89,394.44"/>
    </edge>
    <edge id=":310_18" function="internal">
        <lane id=":310_18_0" index="0" speed="13.90" length="26.96" shape="360.57,412.22 366.72,407.35 372.84,404.78 378.93,404.51 384.98,406.54"/>
    </edge>
    <edge id=":310_19" function="internal">
        <lane id=":310_19_0" index="0" speed="13.90" length="16.05" shape="360.57,412.22 366.78,407.42 371.30,406.81 373.56,409.67"/>
    </edge>
    <edge id=":310_23" function="internal">
        <lane id=":310_23_0" index="0" speed="13.90" length="8.77" shape="373.56,409.67 374.13,410.39 375.28,418.15"/>
    </edge>
    <edge id=":320_0" function="internal">
        <lane id=":320_0_0" index="0" speed="13.90" length="9.10" shape="476.64,184.01 475.20,183.58 473.71,184.32 472.15,186.23 470.54,189.31"/>
    </edge>
    <edge id=":320_1" function="internal">
        <lane id=":320_1_0" index="0" speed="13.90" length="11.79" shape="476.64,184.01 473.95,182.83 471.56,183.08 468.87,183.90 465.26,184.38"/>
    </edge>
    <edge id=":320_2" function="internal">
        <lane id=":320_2_0" index="0" speed="13.90" length="15.86" shape="476.64,184.01 473.81,181.40 471.38,178.19 469.33,174.66 467.62,171.14"/>
    </edge>
    <edge id=":320_3" function="internal">
        <lane id=":320_3_0" index="0" speed="13.90" length="5.51" shape="476.64,184.01 474.43,181.78 473.70,179.52"/>
    </edge>
    <edge id=":320_20" function="internal">
        <lane id=":320_20_0" index="0" speed="13.90" length="6.69" shape="473.70,179.52 473.63,179.28 474.21,176.52 476.19,173.49"/>
    </edge>
    <edge id=":320_4" function="internal">
        <lane id=":320_4_0" index="0" speed="13.90" length="6.77" shape="478.64,175.55 477.46,177.31 477.04,178.87 477.39,180.24 478.51,181.42"/>
    </edge>
    <edge id=":320_5" function="internal">
        <lane id=":320_5_0" index="0" speed="13.90" length="16.00" shape="478.64,175.55 476.30,178.67 474.14,182.15 472.21,185.77 470.54,189.31"/>
    </edge>
    <edge id=":320_6" function="internal">
        <lane id=":320_6_0" index="0" speed="13.90" length="14.99" shape="478.64,175.55 476.03,178.00 472.93,179.75 469.33,180.81 465.24,181.18"/>
    </edge>
    <edge id=":320_7" function="internal">
        <lane id=":320_7_0" index="0" speed="13.90" length="15.26" shape="478.64,175.55 475.74,177.88 472.94,177.92 470.24,175.68 467.62,171.14"/>
    </edge>
    <edge id=":320_8" function="internal">
        <lane id=":320_8_0" index="0" speed="13.90" length="8.27" shape="470.54,169.83 472.04,172.58 473.48,174.11 474.86,174.41 476.19,173.49"/>
    </edge>
    <edge id=":320_9" function="internal">
        <lane id=":320_9_0" index="0" speed="13.90" length="14.24" shape="470.54,169.83 472.09,173.15 473.78,176.23 475.85,179.01 478.51,181.42"/>
    </edge>
    <edge id=":320_10" function="internal">
        <lane id=":320_10_0" index="0" speed="13.90" length="5.72" shape="470.54,169.83 472.19,174.68 472.25,175.27"/>
    </edge>
    <edge id=":320_11" function="internal">
        <lane id=":320_11_0" index="0" speed="13.90" length="8.99" shape="470.54,169.83 472.12,174.77 471.77,178.31 471.59,178.47"/>
    </edge>
    <edge id=":320_21" function="internal">
        <lane id=":320_21_0" index="0" speed="13.90" length="14.37" shape="472.25,175.27 472.73,179.55 472.18,184.42 470.54,189.31"/>
    </edge>
    <edge id=":320_22" function="internal">
        <lane id=":320_22_0" index="0" speed="13.90" length="7.19" shape="471.59,178.47 469.47,180.45 465.24,181.18"/>
    </edge>
    <edge id=":320_12" function="internal">
        <lane id=":320_12_0" index="0" speed="13.90" length="5.68" shape="465.20,174.78 466.87,174.54 467.84,173.86 468.09,172.73 467.62,171.14"/>
    </edge>
    <edge id=":320_13" function="internal">
        <lane id=":320_13_0" index="0" speed="13.90" length="11.17" shape="465.20,174.78 469.62,174.68 472.92,174.43 475.12,174.03 476.19,173.49"/>
    </edge>
    <edge id=":320_14" function="internal">
        <lane id=":320_14_0" index="0" speed="13.90" length="15.31" shape="465.20,174.78 469.85,175.39 473.13,176.98 475.77,179.14 478.51,181.42"/>
    </edge>
    <edge id=":320_15" function="internal">
        <lane id=":320_15_0" index="0" speed="13.90" length="8.09" shape="465.22,177.98 469.47,178.66 471.77,180.78 471.83,181.44"/>
    </edge>
    <edge id=":320_23" function="internal">
        <lane id=":320_23_0" index="0" speed="13.90" length="8.12" shape="471.83,181.44 472.12,184.33 470.54,189.31"/>
    </edge>
    <edge id=":320_16" function="internal">
        <lane id=":320_16_0" index="0" speed="13.90" length="5.63" shape="467.62,187.99 468.08,186.40 467.85,185.27 466.91,184.60 465.26,184.38"/>
    </edge>
    <edge id=":320_17" function="internal">
        <lane id=":320_17_0" index="0" speed="13.90" length="17.37" shape="467.62,187.99 469.04,183.77 469.52,179.55 469.05,175.34 467.62,171.14"/>
    </edge>
    <edge id=":320_18" function="internal">
        <lane id=":320_18_0" index="0" speed="13.90" length="16.90" shape="467.62,187.99 469.37,184.34 471.46,180.46 473.78,176.72 476.19,173.49"/>
    </edge>
    <edge id=":320_19" function="internal">
        <lane id=":320_19_0" index="0" speed="13.90" length="14.92" shape="467.62,187.99 470.14,183.49 472.79,180.89 475.58,180.20 478.51,181.42"/>
    </edge>
    <edge id=":326_0" function="internal">
        <lane id=":326_0_0" index="0" speed="13.90" length="13.17" shape="253.37,537.51 248.55,536.34 244.89,536.05 242.39,536.62 241.04,538.06"/>
    </edge>
    <edge id=":326_1" function="internal">
        <lane id=":326_1_0" index="0" speed="13.90" length="22.27" shape="253.37,537.51 247.36,535.74 242.74,534.50 238.07,533.46 231.92,532.30"/>
        <lane id=":326_1_1" index="1" speed="13.90" length="22.27" shape="254.28,534.44 248.21,532.66 243.48,531.39 238.69,530.32 232.48,529.15"/>
    </edge>
    <edge id=":326_3" function="internal">
        <lane id=":326_3_0" index="0" speed="13.90" length="7.85" shape="254.28,534.44 248.52,531.82 247.40,530.79"/>
    </edge>
    <edge id=":326_4" function="internal">
        <lane id=":326_4_0" index="0" speed="13.90" length="7.13" shape="254.28,534.44 248.70,531.82 248.19,531.00"/>
    </edge>
    <edge id=":326_22" function="internal">
        <lane id=":326_22_0" index="0" speed="13.90" length="17.81" shape="247.40,530.79 244.12,527.77 241.09,522.30 239.41,515.41"/>
    </edge>
    <edge id=":326_23" function="internal">
        <lane id=":326_23_0" index="0" speed="13.90" length="14.95" shape="248.19,531.00 246.45,528.24 247.54,523.72 251.97,518.25"/>
    </edge>
    <edge id=":326_5" function="internal">
        <lane id=":326_5_0" index="0" speed="13.90" length="7.19" shape="256.44,522.83 254.77,524.77 254.16,526.34 254.60,527.51 256.10,528.31"/>
    </edge>
    <edge id=":326_6" function="internal">
        <lane id=":326_6_0" index="0" speed="13.90" length="21.77" shape="256.44,522.83 251.28,527.50 246.76,531.33 243.24,534.71 241.04,538.06"/>
    </edge>
    <edge id=":326_7" function="internal">
        <lane id=":326_7_0" index="0" speed="13.90" length="8.98" shape="254.20,520.54 248.78,525.04 247.08,525.96"/>
    </edge>
    <edge id=":326_8" function="internal">
        <lane id=":326_8_0" index="0" speed="13.90" length="7.70" shape="254.20,520.54 248.58,524.80 247.94,524.88"/>
    </edge>
    <edge id=":326_24" function="internal">
        <lane id=":326_24_0" index="0" speed="13.90" length="15.28" shape="247.08,525.96 243.36,527.97 237.93,529.34 232.48,529.15"/>
    </edge>
    <edge id=":326_25" function="internal">
        <lane id=":326_25_0" index="0" speed="13.90" length="15.16" shape="247.94,524.88 244.24,525.37 241.19,522.24 239.41,515.41"/>
    </edge>
    <edge id=":326_9" function="internal">
        <lane id=":326_9_0" index="0" speed="13.90" length="6.14" shape="245.76,514.58 246.23,516.41 247.06,517.25 248.22,517.10 249.73,515.96"/>
    </edge>
    <edge id=":326_10" function="internal">
        <lane id=":326_10_0" index="0" speed="13.90" length="18.25" shape="245.76,514.58 246.95,519.60 249.07,523.56 252.12,526.46 256.10,528.31"/>
    </edge>
    <edge id=":326_11" function="internal">
        <lane id=":326_11_0" index="0" speed="13.90" length="24.23" shape="245.76,514.58 245.83,521.78 244.59,528.30 242.76,533.83 241.04,538.06"/>
    </edge>
    <edge id=":326_12" function="internal">
        <lane id=":326_12_0" index="0" speed="13.90" length="21.38" shape="242.59,514.99 242.75,522.01 241.13,526.71 237.70,529.09 232.48,529.15"/>
    </edge>
    <edge id=":326_13" function="internal">
        <lane id=":326_13_0" index="0" speed="13.90" length="8.72" shape="233.61,522.85 235.14,522.65 236.08,521.42 236.45,519.14 236.24,515.82"/>
    </edge>
    <edge id=":326_14" function="internal">
        <lane id=":326_14_0" index="0" speed="13.90" length="18.18" shape="233.61,522.85 237.49,522.93 241.47,521.81 245.55,519.49 249.73,515.96"/>
    </edge>
    <edge id=":326_15" function="internal">
        <lane id=":326_15_0" index="0" speed="13.90" length="22.98" shape="233.61,522.85 239.93,524.05 244.95,525.17 249.93,526.50 256.10,528.31"/>