<?xml version="1.0" encoding="UTF-8"?>

<!-- generated on 06/22/18 01:29:06 by Eclipse SUMO netgenerate Version v0_32_0+1445-5aa8ffc0a4
<configuration xmlns:xsi="http://www.w3.org/2001/XMLSchema-instance" xsi:noNamespaceSchemaLocation="http://sumo.dlr.de/xsd/netgenerateConfiguration.xsd">

    <random_network>
        <rand value="true"/>
        <rand.iterations value="20"/>
        <rand.neighbor-dist1 value="1"/>
        <rand.neighbor-dist2 value="0"/>
        <rand.neighbor-dist3 value="4"/>
        <rand.neighbor-dist4 value="4"/>
        <rand.neighbor-dist5 value="4"/>
        <rand.neighbor-dist6 value="9"/>
        <rand.random-lanenumber value="true"/>
    </random_network>

    <output>
        <output-file value="city/city.net.xml"/>
    </output>

    <processing>
        <no-turnarounds value="true"/>
    </processing>

    <building_defaults>
        <default.lanenumber value="5"/>
        <default-junction-type value="traffic_light_right_on_red"/>
    </building_defaults>

</configuration>
-->

<net version="0.27" xmlns:xsi="http://www.w3.org/2001/XMLSchema-instance" xsi:noNamespaceSchemaLocation="http://sumo.dlr.de/xsd/net_file.xsd">

    <location netOffset="213.21,795.88" convBoundary="0.00,0.00,773.90,1007.34" origBoundary="-213.21,-795.88,560.68,211.46" projParameter="!"/>

    <edge id=":1_0" function="internal">
        <lane id=":1_0_0" index="0" speed="13.90" length="9.55" shape="208.52,802.67 207.98,801.24 206.41,800.58 203.82,800.70 200.20,801.59"/>
    </edge>
    <edge id=":1_1" function="internal">
        <lane id=":1_1_0" index="0" speed="13.90" length="10.11" shape="208.52,802.67 208.02,799.95 206.92,798.28 205.61,796.63 204.53,793.99"/>
        <lane id=":1_1_1" index="1" speed="13.90" length="10.11" shape="211.72,802.62 211.22,799.69 210.10,797.88 208.77,796.08 207.64,793.24"/>
        <lane id=":1_1_2" index="2" speed="13.90" length="10.11" shape="211.72,802.62 211.70,799.59 211.65,797.50 211.39,795.45 210.75,792.49"/>
    </edge>
    <edge id=":1_4" function="internal">
        <lane id=":1_4_0" index="0" speed="13.90" length="7.96" shape="211.72,802.62 212.63,798.98 215.51,796.47 215.88,796.36"/>
    </edge>
    <edge id=":1_15" function="internal">
        <lane id=":1_15_0" index="0" speed="13.90" length="11.46" shape="215.88,796.36 220.36,795.08 227.16,794.81"/>
    </edge>
    <edge id=":1_5" function="internal">
        <lane id=":1_5_0" index="0" speed="13.90" length="11.22" shape="227.04,798.01 223.11,798.16 220.31,798.96 218.65,800.42 218.12,802.52"/>
    </edge>
    <edge id=":1_6" function="internal">
        <lane id=":1_6_0" index="0" speed="13.90" length="27.12" shape="227.04,798.01 221.41,798.28 213.54,799.17 205.71,800.38 200.20,801.59"/>
    </edge>
    <edge id=":1_7" function="internal">
        <lane id=":1_7_0" index="0" speed="13.90" length="8.58" shape="227.04,798.01 220.36,797.45 218.53,797.04"/>
    </edge>
    <edge id=":1_16" function="internal">
        <lane id=":1_16_0" index="0" speed="13.90" length="9.43" shape="218.53,797.04 215.42,796.34 212.22,794.69 210.75,792.49"/>
    </edge>
    <edge id=":1_8" function="internal">
        <lane id=":1_8_0" index="0" speed="13.90" length="7.06" shape="223.20,789.50 223.92,791.79 224.82,793.43 225.90,794.44 227.16,794.81"/>
    </edge>
    <edge id=":1_9" function="internal">
        <lane id=":1_9_0" index="0" speed="13.90" length="14.22" shape="223.20,789.50 223.08,793.42 221.23,795.94 219.10,798.49 218.12,802.52"/>
        <lane id=":1_9_1" index="1" speed="13.90" length="14.22" shape="220.09,790.25 219.92,793.98 218.05,796.34 215.90,798.74 214.92,802.57"/>
    </edge>
    <edge id=":1_11" function="internal">
        <lane id=":1_11_0" index="0" speed="13.90" length="3.42" shape="213.87,791.75 213.48,794.32 212.91,794.91"/>
    </edge>
    <edge id=":1_17" function="internal">
        <lane id=":1_17_0" index="0" speed="13.90" length="14.56" shape="212.91,794.91 211.08,796.82 206.65,799.24 200.20,801.59"/>
    </edge>
    <edge id=":1_12" function="internal">
        <lane id=":1_12_0" index="0" speed="13.90" length="4.92" shape="199.26,798.54 200.46,797.97 201.23,797.14 201.55,796.06 201.42,794.73"/>
    </edge>
    <edge id=":1_13" function="internal">
        <lane id=":1_13_0" index="0" speed="13.90" length="28.20" shape="199.26,798.54 204.93,797.30 213.13,796.05 221.36,795.10 227.16,794.81"/>
    </edge>
    <edge id=":1_14" function="internal">
        <lane id=":1_14_0" index="0" speed="13.90" length="13.09" shape="199.26,798.54 206.06,796.98 210.93,797.14 211.98,797.80"/>
    </edge>
    <edge id=":1_18" function="internal">
        <lane id=":1_18_0" index="0" speed="13.90" length="5.97" shape="211.98,797.80 213.89,799.00 214.92,802.57"/>
    </edge>
    <edge id=":102_0" function="internal">
        <lane id=":102_0_0" index="0" speed="13.90" length="5.24" shape="476.74,675.19 475.35,674.69 474.21,674.80 473.33,675.53 472.69,676.86"/>
    </edge>
    <edge id=":102_1" function="internal">
        <lane id=":102_1_0" index="0" speed="13.90" length="11.14" shape="478.24,672.37 475.29,671.30 472.87,671.54 470.99,673.08 469.64,675.91"/>
    </edge>
    <edge id=":102_2" function="internal">
        <lane id=":102_2_0" index="0" speed="13.90" length="17.03" shape="479.74,669.54 475.23,667.92 471.53,668.28 468.64,670.63 466.58,674.96"/>
    </edge>
    <edge id=":102_3" function="internal">
        <lane id=":102_3_0" index="0" speed="13.90" length="40.73" shape="457.41,672.11 462.53,660.59 469.21,653.97 477.45,652.24 487.25,655.41"/>
    </edge>
    <edge id=":102_4" function="internal">
        <lane id=":102_4_0" index="0" speed="13.90" length="34.85" shape="460.47,673.06 464.87,663.04 470.56,657.23 477.51,655.63 485.75,658.24"/>
    </edge>
    <edge id=":102_5" function="internal">
        <lane id=":102_5_0" index="0" speed="13.90" length="28.98" shape="463.52,674.01 467.22,665.49 471.90,660.49 477.58,659.02 484.25,661.06"/>
    </edge>
    <edge id=":102_6" function="internal">
        <lane id=":102_6_0" index="0" speed="13.90" length="25.92" shape="463.52,674.01 466.76,666.83 471.04,662.75 476.37,661.77 482.74,663.89"/>
    </edge>
    <edge id=":106_0" function="internal">
        <lane id=":106_0_0" index="0" speed="13.90" length="3.92" shape="269.35,340.43 268.20,340.35 267.40,340.41 266.64,340.69 265.62,341.23"/>
    </edge>
    <edge id=":106_1" function="internal">
        <lane id=":106_1_0" index="0" speed="13.90" length="8.72" shape="264.06,338.44 270.21,330.87"/>
        <lane id=":106_1_1" index="1" speed="13.90" length="8.72" shape="264.06,338.44 265.81,336.95 266.82,335.45 267.92,334.35 269.93,334.06"/>
    </edge>
    <edge id=":114_0" function="internal">
        <lane id=":114_0_0" index="0" speed="13.90" length="7.48" shape="161.96,207.46 159.39,206.80 157.46,206.79 156.16,207.43 155.49,208.71"/>
    </edge>
    <edge id=":114_1" function="internal">
        <lane id=":114_1_0" index="0" speed="13.90" length="33.76" shape="161.96,207.46 154.54,203.13 147.19,196.47 141.05,189.67 137.21,184.95"/>
    </edge>
    <edge id=":114_2" function="internal">
        <lane id=":114_2_0" index="0" speed="13.90" length="13.30" shape="163.00,204.44 156.54,201.29 152.70,197.18 152.58,196.70"/>
    </edge>
    <edge id=":114_17" function="internal">
        <lane id=":114_17_0" index="0" speed="13.90" length="10.96" shape="152.58,196.70 151.47,192.09 152.85,186.03"/>
    </edge>
    <edge id=":114_3" function="internal">
        <lane id=":114_3_0" index="0" speed="13.90" length="8.31" shape="164.69,190.89 163.72,193.78 163.46,195.99 163.91,197.52 165.07,198.38"/>
    </edge>
    <edge id=":114_4" function="internal">
        <lane id=":114_4_0" index="0" speed="13.90" length="20.75" shape="164.69,190.89 161.95,196.21 159.46,199.61 157.29,203.10 155.49,208.71"/>
        <lane id=":114_4_1" index="1" speed="13.90" length="20.75" shape="161.73,189.68 158.92,195.15 156.40,198.65 154.20,202.26 152.37,208.03"/>
        <lane id=":114_4_2" index="2" speed="13.90" length="20.75" shape="158.77,188.46 155.90,194.09 153.34,197.70 151.11,201.42 149.24,207.35"/>
    </edge>
    <edge id=":114_7" function="internal">
        <lane id=":114_7_0" index="0" speed="13.90" length="6.75" shape="155.81,187.25 152.48,192.38 151.88,192.57"/>
    </edge>
    <edge id=":114_18" function="internal">
        <lane id=":114_18_0" index="0" speed="13.90" length="18.11" shape="151.88,192.57 148.27,193.70 143.18,191.23 137.21,184.95"/>
    </edge>
    <edge id=":114_8" function="internal">
        <lane id=":114_8_0" index="0" speed="13.90" length="5.81" shape="139.73,182.97 140.98,184.19 142.10,184.50 143.10,183.90 143.97,182.39"/>
    </edge>
    <edge id=":114_9" function="internal">
        <lane id=":114_9_0" index="0" speed="13.90" length="30.76" shape="139.73,182.97 143.50,187.06 149.49,192.45 156.68,197.72 164.03,201.41"/>
    </edge>
    <edge id=":114_10" function="internal">
        <lane id=":114_10_0" index="0" speed="13.90" length="11.77" shape="139.73,182.97 144.67,190.04 146.09,192.86"/>
    </edge>
    <edge id=":114_19" function="internal">
        <lane id=":114_19_0" index="0" speed="13.90" length="15.13" shape="146.09,192.86 147.90,196.47 149.43,202.24 149.24,207.35"/>
    </edge>
    <edge id=":114_11" function="internal">
        <lane id=":114_11_0" index="0" speed="13.90" length="21.18" shape="139.86,205.32 140.78,199.05 140.64,193.57 139.45,188.87 137.21,184.95"/>
    </edge>
    <edge id=":114_12" function="internal">
        <lane id=":114_12_0" index="0" speed="13.90" length="22.58" shape="139.86,205.32 140.92,198.45 141.18,193.62 141.81,188.91 143.97,182.39"/>
        <lane id=":114_12_1" index="1" speed="13.90" length="22.58" shape="142.99,206.00 144.01,199.29 144.24,194.58 144.83,189.98 146.93,183.60"/>
        <lane id=":114_12_2" index="2" speed="13.90" length="22.58" shape="146.11,206.68 147.10,200.13 147.30,195.53 147.85,191.04 149.89,184.82"/>
        <lane id=":114_12_3" index="3" speed="13.90" length="22.58" shape="146.11,206.68 147.56,200.39 148.80,196.14 150.38,192.00 152.85,186.03"/>
    </edge>
    <edge id=":114_16" function="internal">
        <lane id=":114_16_0" index="0" speed="13.90" length="6.28" shape="146.11,206.68 148.10,202.37 149.39,201.55"/>
    </edge>
    <edge id=":114_20" function="internal">
        <lane id=":114_20_0" index="0" speed="13.90" length="15.28" shape="149.39,201.55 151.74,200.05 157.06,199.73 164.03,201.41"/>
    </edge>
    <edge id=":12_0" function="internal">
        <lane id=":12_0_0" index="0" speed="13.90" length="3.85" shape="282.94,620.95 282.24,620.06 281.68,619.50 281.00,619.10 279.96,618.66"/>
    </edge>
    <edge id=":12_1" function="internal">
        <lane id=":12_1_0" index="0" speed="13.90" length="8.47" shape="281.14,615.69 290.64,615.23"/>
        <lane id=":12_1_1" index="1" speed="13.90" length="8.47" shape="281.14,615.69 283.31,616.07 285.05,615.84 286.56,615.90 288.08,617.14"/>
    </edge>
    <edge id=":14_0" function="internal">
        <lane id=":14_0_0" index="0" speed="13.90" length="21.11" shape="92.80,439.83 90.71,433.56 90.70,428.91 91.99,424.13 93.79,417.46"/>
        <lane id=":14_0_1" index="1" speed="13.90" length="21.11" shape="95.73,438.54 93.86,432.81 93.96,428.58 95.23,424.22 96.92,418.14"/>
        <lane id=":14_0_2" index="2" speed="13.90" length="21.11" shape="98.66,437.24 97.02,432.07 97.21,428.25 98.47,424.32 100.04,418.81"/>
    </edge>
    <edge id=":14_3" function="internal">
        <lane id=":14_3_0" index="0" speed="13.90" length="3.57" shape="98.66,437.24 98.74,434.57 99.27,433.85"/>
    </edge>
    <edge id=":14_11" function="internal">
        <lane id=":14_11_0" index="0" speed="13.90" length="17.28" shape="99.27,433.85 101.12,431.35 105.79,427.61 112.76,423.32"/>
    </edge>
    <edge id=":14_4" function="internal">
        <lane id=":14_4_0" index="0" speed="13.90" length="10.59" shape="114.33,426.11 110.86,428.26 108.56,430.19 107.41,431.89 107.43,433.35"/>
    </edge>
    <edge id=":14_5" function="internal">
        <lane id=":14_5_0" index="0" speed="13.90" length="29.06" shape="114.33,426.11 105.06,430.20 99.07,430.23 96.36,426.21 96.92,418.14"/>
    </edge>
    <edge id=":14_6" function="internal">
        <lane id=":14_6_0" index="0" speed="13.90" length="24.49" shape="114.33,426.11 106.66,429.46 101.72,429.35 99.52,425.81 100.04,418.81"/>
    </edge>
    <edge id=":14_7" function="internal">
        <lane id=":14_7_0" index="0" speed="13.90" length="6.41" shape="109.42,420.85 109.23,422.86 109.72,423.94 110.90,424.09 112.76,423.32"/>
    </edge>
    <edge id=":14_8" function="internal">
        <lane id=":14_8_0" index="0" speed="13.90" length="15.12" shape="109.42,420.85 108.19,424.60 106.96,427.25 106.47,429.83 107.43,433.35"/>
        <lane id=":14_8_1" index="1" speed="13.90" length="15.12" shape="106.30,420.17 104.95,424.50 103.71,427.58 103.32,430.58 104.51,434.65"/>
        <lane id=":14_8_2" index="2" speed="13.90" length="15.12" shape="103.17,419.49 101.71,424.41 100.46,427.91 100.17,431.32 101.58,435.95"/>
    </edge>
    <edge id=":18_0" function="internal">
        <lane id=":18_0_0" index="0" speed="13.90" length="32.44" shape="615.14,748.31 610.20,743.34 603.63,741.02 595.44,741.34 585.61,744.30"/>
    </edge>
    <edge id=":18_1" function="internal">
        <lane id=":18_1_0" index="0" speed="13.90" length="37.32" shape="615.14,748.31 611.39,744.66 604.57,740.06 595.19,734.61 583.74,728.41"/>
    </edge>
    <edge id=":18_2" function="internal">
        <lane id=":18_2_0" index="0" speed="13.90" length="38.02" shape="615.14,748.31 609.46,738.34 605.95,729.06 604.61,720.48 605.44,712.58"/>
    </edge>
    <edge id=":18_3" function="internal">
        <lane id=":18_3_0" index="0" speed="13.90" length="18.61" shape="615.14,748.31 610.95,740.04 610.86,734.27 613.63,732.01"/>
    </edge>
    <edge id=":18_26" function="internal">
        <lane id=":18_26_0" index="0" speed="13.90" length="9.74" shape="613.63,732.01 614.86,731.00 622.97,730.22"/>
    </edge>
    <edge id=":18_4" function="internal">
        <lane id=":18_4_0" index="0" speed="13.90" length="7.87" shape="622.38,743.00 619.43,743.10 617.68,743.73 617.15,744.88 617.82,746.55"/>
    </edge>
    <edge id=":18_5" function="internal">
        <lane id=":18_5_0" index="0" speed="13.90" length="37.73" shape="622.38,743.00 610.18,742.32 600.58,741.93 592.68,742.40 585.61,744.30"/>
        <lane id=":18_5_1" index="1" speed="13.90" length="37.73" shape="622.52,739.81 609.84,739.15 599.80,738.84 591.60,739.40 584.42,741.33"/>
    </edge>
    <edge id=":18_7" function="internal">
        <lane id=":18_7_0" index="0" speed="13.90" length="39.60" shape="622.67,736.61 611.02,735.80 603.11,734.19 595.62,731.04 585.24,725.58"/>
    </edge>
    <edge id=":18_8" function="internal">
        <lane id=":18_8_0" index="0" speed="13.90" length="38.17" shape="622.82,733.42 611.59,732.63 603.97,731.07 596.75,728.02 586.75,722.76"/>
    </edge>
    <edge id=":18_9" function="internal">
        <lane id=":18_9_0" index="0" speed="13.90" length="15.36" shape="622.82,733.42 614.75,731.83 609.68,727.96 609.44,727.24"/>
    </edge>
    <edge id=":18_27" function="internal">
        <lane id=":18_27_0" index="0" speed="13.90" length="14.22" shape="609.44,727.24 607.61,721.81 608.55,713.37"/>
    </edge>
    <edge id=":18_10" function="internal">
        <lane id=":18_10_0" index="0" speed="13.90" length="5.74" shape="620.95,716.51 620.73,718.25 621.06,719.52 621.96,720.31 623.41,720.63"/>
    </edge>
    <edge id=":18_11" function="internal">
        <lane id=":18_11_0" index="0" speed="13.90" length="31.52" shape="617.85,715.73 615.73,726.00 615.02,734.57 615.71,741.42 617.82,746.55"/>
    </edge>
    <edge id=":18_12" function="internal">
        <lane id=":18_12_0" index="0" speed="13.90" length="15.70" shape="614.75,714.94 611.06,724.14 607.54,728.74"/>
    </edge>
    <edge id=":18_13" function="internal">
        <lane id=":18_13_0" index="0" speed="13.90" length="11.39" shape="611.65,714.15 608.23,722.62 606.85,724.41"/>
    </edge>
    <edge id=":18_14" function="internal">
        <lane id=":18_14_0" index="0" speed="13.90" length="10.49" shape="611.65,714.15 608.26,721.91 606.65,723.14"/>
    </edge>
    <edge id=":18_28" function="internal">
        <lane id=":18_28_0" index="0" speed="13.90" length="27.23" shape="607.54,728.74 604.98,732.09 596.49,738.82 585.61,744.30"/>
    </edge>
    <edge id=":18_29" function="internal">
        <lane id=":18_29_0" index="0" speed="13.90" length="28.54" shape="606.85,724.41 602.55,729.97 594.61,736.21 584.42,741.33"/>
    </edge>
    <edge id=":18_30" function="internal">
        <lane id=":18_30_0" index="0" speed="13.90" length="21.48" shape="606.65,723.14 602.98,725.93 595.81,726.21 586.75,722.76"/>
    </edge>
    <edge id=":18_15" function="internal">
        <lane id=":18_15_0" index="0" speed="13.90" length="7.61" shape="592.75,711.45 595.26,712.55 597.18,712.84 598.51,712.32 599.24,711.01"/>
    </edge>
    <edge id=":18_16" function="internal">
        <lane id=":18_16_0" index="0" speed="13.90" length="33.90" shape="592.75,711.45 601.25,715.95 607.38,718.58 613.86,719.94 623.41,720.63"/>
        <lane id=":18_16_1" index="1" speed="13.90" length="33.90" shape="591.25,714.28 600.13,718.97 606.53,721.70 613.29,723.11 623.26,723.83"/>
        <lane id=":18_16_2" index="2" speed="13.90" length="33.90" shape="589.75,717.11 599.00,721.99 605.67,724.83 612.73,726.28 623.11,727.02"/>
    </edge>
    <edge id=":18_19" function="internal">
        <lane id=":18_19_0" index="0" speed="13.90" length="20.40" shape="589.75,717.11 601.20,725.08 605.61,729.77"/>
    </edge>
    <edge id=":18_20" function="internal">
        <lane id=":18_20_0" index="0" speed="13.90" length="9.93" shape="588.25,719.93 595.98,725.50 596.11,725.88"/>
    </edge>
    <edge id=":18_31" function="internal">
        <lane id=":18_31_0" index="0" speed="13.90" length="20.81" shape="605.61,729.77 609.38,733.78 614.76,741.51 617.82,746.55"/>
    </edge>
    <edge id=":18_32" function="internal">
        <lane id=":18_32_0" index="0" speed="13.90" length="22.82" shape="596.11,725.88 597.92,730.93 594.06,736.21 584.42,741.33"/>
    </edge>
    <edge id=":18_21" function="internal">
        <lane id=":18_21_0" index="0" speed="13.90" length="6.32" shape="582.02,735.40 583.75,734.45 584.37,733.43 583.86,732.36 582.24,731.24"/>
    </edge>
    <edge id=":18_22" function="internal">
        <lane id=":18_22_0" index="0" speed="13.90" length="32.36" shape="582.02,735.40 589.28,731.51 595.09,726.28 599.44,719.71 602.34,711.80"/>
    </edge>
    <edge id=":18_23" function="internal">
        <lane id=":18_23_0" index="0" speed="13.90" length="41.65" shape="582.02,735.40 589.55,732.38 598.55,729.46 609.57,727.42 623.11,727.02"/>
        <lane id=":18_23_1" index="1" speed="13.90" length="41.65" shape="583.22,738.37 590.53,735.39 599.08,732.55 609.63,730.58 622.97,730.22"/>
    </edge>
    <edge id=":18_25" function="internal">
        <lane id=":18_25_0" index="0" speed="13.90" length="38.96" shape="583.22,738.37 594.05,735.38 603.43,735.75 611.35,739.48 617.82,746.55"/>
    </edge>
    <edge id=":2_0" function="internal">
        <lane id=":2_0_0" index="0" speed="13.90" length="11.04" shape="151.14,585.35 151.20,582.35 152.33,580.23 153.29,578.17 152.86,575.34"/>
        <lane id=":2_0_1" index="1" speed="13.90" length="11.04" shape="154.25,584.60 154.27,581.45 155.36,579.21 156.28,577.02 155.78,574.04"/>
        <lane id=":2_0_2" index="2" speed="13.90" length="11.04" shape="157.36,583.85 157.34,580.54 158.40,578.18 159.27,575.87 158.71,572.75"/>
    </edge>
    <edge id=":2_3" function="internal">
        <lane id=":2_3_0" index="0" speed="13.90" length="8.80" shape="160.48,583.11 159.99,576.17 161.05,574.66"/>
    </edge>
    <edge id=":2_12" function="internal">
        <lane id=":2_12_0" index="0" speed="13.90" length="17.81" shape="161.05,574.66 162.63,572.40 168.40,571.81 177.30,574.38"/>
    </edge>
    <edge id=":2_4" function="internal">
        <lane id=":2_4_0" index="0" speed="13.90" length="6.06" shape="176.11,577.35 174.32,576.89 173.18,577.20 172.72,578.27 172.92,580.12"/>
    </edge>
    <edge id=":2_5" function="internal">
        <lane id=":2_5_0" index="0" speed="13.90" length="10.18" shape="176.11,577.35 172.76,576.40 170.59,576.66 169.61,578.15 169.81,580.87"/>
    </edge>
    <edge id=":2_6" function="internal">
        <lane id=":2_6_0" index="0" speed="13.90" length="22.19" shape="176.11,577.35 171.56,577.38 165.77,578.54 160.07,578.27 155.78,574.04"/>
    </edge>
    <edge id=":2_7" function="internal">
        <lane id=":2_7_0" index="0" speed="13.90" length="19.23" shape="176.11,577.35 171.95,577.01 167.04,577.44 162.31,576.68 158.71,572.75"/>
    </edge>
    <edge id=":2_8" function="internal">
        <lane id=":2_8_0" index="0" speed="13.90" length="11.82" shape="167.48,568.86 169.33,571.63 171.50,572.86 174.12,573.46 177.30,574.38"/>
    </edge>
    <edge id=":2_9" function="internal">
        <lane id=":2_9_0" index="0" speed="13.90" length="11.73" shape="167.48,568.86 168.69,572.26 169.04,574.73 169.19,577.27 169.81,580.87"/>
        <lane id=":2_9_1" index="1" speed="13.90" length="11.73" shape="164.56,570.15 165.70,573.39 166.00,575.76 166.12,578.18 166.70,581.61"/>
        <lane id=":2_9_2" index="2" speed="13.90" length="11.73" shape="161.63,571.45 162.70,574.53 162.97,576.78 163.05,579.09 163.59,582.36"/>
    </edge>
    <edge id=":6_0" function="internal">
        <lane id=":6_0_0" index="0" speed="13.90" length="48.99" shape="238.88,1003.65 227.09,1010.63 218.57,1009.78 213.34,1001.11 211.38,984.63"/>
    </edge>
    <edge id=":6_1" function="internal">
        <lane id=":6_1_0" index="0" speed="13.90" length="40.50" shape="236.86,1001.16 227.32,1006.74 220.42,1005.83 216.17,998.44 214.58,984.57"/>
    </edge>
    <edge id=":6_2" function="internal">
        <lane id=":6_2_0" index="0" speed="13.90" length="6.21" shape="220.98,984.47 221.24,986.38 221.96,987.31 223.14,987.27 224.77,986.25"/>
    </edge>
    <edge id=":6_3" function="internal">
        <lane id=":6_3_0" index="0" speed="13.90" length="14.73" shape="217.78,984.52 218.41,989.05 220.12,991.26 222.91,991.16 226.79,988.73"/>
    </edge>
    <edge id=":6_4" function="internal">
        <lane id=":6_4_0" index="0" speed="13.90" length="19.02" shape="217.78,984.52 218.56,990.73 220.65,993.92 224.07,994.08 228.80,991.22"/>
    </edge>
    <edge id=":6_5" function="internal">
        <lane id=":6_5_0" index="0" speed="13.90" length="23.34" shape="217.78,984.52 218.71,992.41 221.19,996.57 225.23,997.00 230.82,993.70"/>
    </edge>
    <edge id=":62_0" function="internal">
        <lane id=":62_0_0" index="0" speed="13.90" length="3.61" shape="323.72,930.43 323.60,934.95"/>
        <lane id=":62_0_1" index="1" speed="13.90" length="3.61" shape="321.32,928.31 321.59,932.47"/>
        <lane id=":62_0_2" index="2" speed="13.90" length="3.61" shape="318.92,926.19 319.57,929.98"/>
        <lane id=":62_0_3" index="3" speed="13.90" length="3.61" shape="318.92,926.19 318.55,926.61 318.28,926.89 317.99,927.14 317.56,927.50"/>
    </edge>
    <edge id=":62_4" function="internal">
        <lane id=":62_4_0" index="0" speed="13.90" length="3.27" shape="309.50,917.56 311.73,919.84"/>
        <lane id=":62_4_1" index="1" speed="13.90" length="3.27" shape="311.51,920.04 314.12,921.95"/>
        <lane id=":62_4_2" index="2" speed="13.90" length="3.27" shape="313.53,922.53 316.52,924.07"/>
    </edge>
    <edge id=":8_0" function="internal">
        <lane id=":8_0_0" index="0" speed="13.90" length="10.38" shape="430.18,815.19 428.93,814.31 427.13,814.70 424.78,816.37 421.89,819.32"/>
    </edge>
    <edge id=":8_1" function="internal">
        <lane id=":8_1_0" index="0" speed="13.90" length="25.18" shape="430.18,815.19 426.47,810.91 421.58,807.76 415.51,805.75 408.26,804.88"/>
    </edge>
    <edge id=":8_2" function="internal">
        <lane id=":8_2_0" index="0" speed="13.90" length="30.32" shape="430.18,815.19 412.78,790.37"/>
    </edge>
    <edge id=":8_3" function="internal">
        <lane id=":8_3_0" index="0" speed="13.90" length="1.90" shape="430.18,815.19 429.38,813.47"/>
    </edge>
    <edge id=":8_4" function="internal">
        <lane id=":8_4_0" index="0" speed="13.90" length="1.95" shape="430.18,815.19 429.49,813.37"/>
    </edge>
    <edge id=":8_34" function="internal">
        <lane id=":8_34_0" index="0" speed="13.90" length="27.61" shape="429.38,813.47 427.41,809.27 426.21,802.53 426.58,794.99 428.52,786.64"/>
    </edge>
    <edge id=":8_35" function="internal">
        <lane id=":8_35_0" index="0" speed="13.90" length="25.29" shape="429.49,813.37 428.01,809.43 429.25,804.19 433.90,799.48 441.96,795.28"/>
    </edge>
    <edge id=":8_5" function="internal">
        <lane id=":8_5_0" index="0" speed="13.90" length="18.88" shape="444.35,801.22 437.87,804.31 433.80,807.38 432.13,810.43 432.87,813.46"/>
    </edge>
    <edge id=":8_6" function="internal">
        <lane id=":8_6_0" index="0" speed="13.90" length="29.18" shape="444.35,801.22 438.27,804.10 433.22,807.62 428.13,812.46 421.89,819.32"/>
    </edge>
    <edge id=":8_7" function="internal">
        <lane id=":8_7_0" index="0" speed="13.90" length="36.42" shape="444.35,801.22 435.50,803.40 424.70,804.52 414.70,804.92 408.26,804.88"/>
    </edge>
    <edge id=":8_8" function="internal">
        <lane id=":8_8_0" index="0" speed="13.90" length="7.17" shape="443.15,798.25 436.22,800.07"/>
    </edge>
    <edge id=":8_9" function="internal">
        <lane id=":8_9_0" index="0" speed="13.90" length="17.09" shape="443.15,798.25 434.42,800.68 429.07,799.55 428.08,797.19"/>
    </edge>
    <edge id=":8_36" function="internal">
        <lane id=":8_36_0" index="0" speed="13.90" length="26.94" shape="436.22,800.07 434.18,800.61 426.12,800.08 418.99,796.67 412.78,790.37"/>
    </edge>
    <edge id=":8_37" function="internal">
        <lane id=":8_37_0" index="0" speed="13.90" length="10.87" shape="428.08,797.19 427.10,794.87 428.52,786.64"/>
    </edge>
    <edge id=":8_10" function="internal">
        <lane id=":8_10_0" index="0" speed="13.90" length="6.27" shape="437.69,789.49 437.34,791.41 437.73,792.52 438.88,792.82 440.76,792.32"/>
    </edge>
    <edge id=":8_11" function="internal">
        <lane id=":8_11_0" index="0" speed="13.90" length="24.66" shape="437.69,789.49 434.92,798.94 433.19,806.09 432.51,810.93 432.87,813.46"/>
    </edge>
    <edge id=":8_12" function="internal">
        <lane id=":8_12_0" index="0" speed="13.90" length="32.80" shape="437.69,789.49 434.74,798.61 431.85,805.56 427.92,811.93 421.89,819.32"/>
        <lane id=":8_12_1" index="1" speed="13.90" length="32.80" shape="434.63,788.54 431.79,797.48 429.12,804.02 425.42,809.99 419.49,817.20"/>
        <lane id=":8_12_2" index="2" speed="13.90" length="32.80" shape="431.58,787.59 428.83,796.34 426.39,802.49 422.92,808.06 417.10,815.08"/>
    </edge>
    <edge id=":8_15" function="internal">
        <lane id=":8_15_0" index="0" speed="13.90" length="9.90" shape="431.58,787.59 428.03,795.41 427.14,796.37"/>
    </edge>
    <edge id=":8_16" function="internal">
        <lane id=":8_16_0" index="0" speed="13.90" length="9.20" shape="431.58,787.59 428.09,795.19 427.41,795.67"/>
    </edge>
    <edge id=":8_38" function="internal">
        <lane id=":8_38_0" index="0" speed="13.90" length="21.62" shape="427.14,796.37 422.96,800.90 416.37,804.05 408.26,804.88"/>
    </edge>
    <edge id=":8_39" function="internal">
        <lane id=":8_39_0" index="0" speed="13.90" length="18.33" shape="427.41,795.67 423.80,798.18 418.69,796.58 412.78,790.37"/>
    </edge>
    <edge id=":8_17" function="internal">
        <lane id=":8_17_0" index="0" speed="13.90" length="6.90" shape="417.91,786.55 419.23,787.84 420.42,787.96 421.48,786.93 422.41,784.74"/>
    </edge>
    <edge id=":8_18" function="internal">
        <lane id=":8_18_0" index="0" speed="13.90" length="25.61" shape="417.91,786.55 422.55,791.23 427.91,793.75 433.98,794.11 440.76,792.32"/>
    </edge>
    <edge id=":8_19" function="internal">
        <lane id=":8_19_0" index="0" speed="13.90" length="30.81" shape="417.91,786.55 422.39,793.55 426.61,801.44 430.23,808.61 432.87,813.46"/>
    </edge>
    <edge id=":8_20" function="internal">
        <lane id=":8_20_0" index="0" speed="13.90" length="11.63" shape="415.35,788.46 419.78,795.95 420.51,798.79"/>
    </edge>
    <edge id=":8_21" function="internal">
        <lane id=":8_21_0" index="0" speed="13.90" length="11.60" shape="415.35,788.46 419.69,795.93 419.84,798.88"/>
    </edge>
    <edge id=":8_40" function="internal">
        <lane id=":8_40_0" index="0" speed="13.90" length="17.49" shape="420.51,798.79 421.55,802.88 420.66,809.26 417.10,815.08"/>
    </edge>
    <edge id=":8_41" function="internal">
        <lane id=":8_41_0" index="0" speed="13.90" length="15.03" shape="419.84,798.88 419.95,801.15 416.14,804.14 408.26,804.88"/>
    </edge>
    <edge id=":8_22" function="internal">
        <lane id=":8_22_0" index="0" speed="13.90" length="13.83" shape="408.38,801.69 411.90,801.23 413.37,799.51 412.81,796.52 410.21,792.28"/>
    </edge>
    <edge id=":8_23" function="internal">
        <lane id=":8_23_0" index="0" speed="13.90" length="23.44" shape="408.38,801.69 412.50,800.75 416.22,797.61 419.52,792.27 422.41,784.74"/>
    </edge>
    <edge id=":8_24" function="internal">
        <lane id=":8_24_0" index="0" speed="13.90" length="34.29" shape="408.38,801.69 414.43,801.29 423.56,799.96 433.50,797.89 441.96,795.28"/>
    </edge>
    <edge id=":8_25" function="internal">
        <lane id=":8_25_0" index="0" speed="13.90" length="7.23" shape="408.38,801.69 415.56,802.56"/>
    </edge>
    <edge id=":8_26" function="internal">