<?xml version="1.0" encoding="UTF-8"?>

<!-- generated on 06/22/18 02:06:46 by Eclipse SUMO netgenerate Version v0_32_0+1445-5aa8ffc0a4
<configuration xmlns:xsi="http://www.w3.org/2001/XMLSchema-instance" xsi:noNamespaceSchemaLocation="http://sumo.dlr.de/xsd/netgenerateConfiguration.xsd">

    <random_network>
        <rand value="true"/>
        <rand.iterations value="15"/>
        <rand.neighbor-dist1 value="8"/>
        <rand.neighbor-dist2 value="10"/>
        <rand.neighbor-dist3 value="10"/>
        <rand.neighbor-dist4 value="9"/>
        <rand.neighbor-dist5 value="8"/>
        <rand.neighbor-dist6 value="9"/>
        <rand.random-lanenumber value="true"/>
    </random_network>

    <output>
        <output-file value="city/city.net.xml"/>
    </output>

    <processing>
        <no-turnarounds value="true"/>
    </processing>

    <building_defaults>
        <default.lanenumber value="4"/>
        <default-junction-type value="traffic_light_right_on_red"/>
    </building_defaults>

</configuration>
-->

<net version="0.27" xmlns:xsi="http://www.w3.org/2001/XMLSchema-instance" xsi:noNamespaceSchemaLocation="http://sumo.dlr.de/xsd/net_file.xsd">

    <location netOffset="162.29,481.05" convBoundary="0.00,0.00,727.89,692.51" origBoundary="-162.29,-481.05,565.60,211.46" projParameter="!"/>

    <edge id=":1_0" function="internal">
        <lane id=":1_0_0" index="0" speed="13.90" length="11.50" shape="154.52,496.00 154.23,491.34 153.53,488.16 152.41,486.47 150.88,486.26"/>
    </edge>
    <edge id=":1_1" function="internal">
        <lane id=":1_1_0" index="0" speed="13.90" length="28.08" shape="157.72,495.95 157.76,486.34 157.96,478.50 157.99,472.37 157.49,467.91"/>
    </edge>
    <edge id=":1_2" function="internal">
        <lane id=":1_2_0" index="0" speed="13.90" length="12.86" shape="160.92,495.90 161.65,488.71 164.10,483.64"/>
    </edge>
    <edge id=":1_13" function="internal">
        <lane id=":1_13_0" index="0" speed="13.90" length="11.03" shape="164.10,483.64 168.26,480.70 174.14,479.90"/>
    </edge>
    <edge id=":1_3" function="internal">
        <lane id=":1_3_0" index="0" speed="13.90" length="5.06" shape="173.66,492.69 172.27,492.83 171.28,493.39 170.70,494.37 170.52,495.75"/>
    </edge>
    <edge id=":1_4" function="internal">
        <lane id=":1_4_0" index="0" speed="13.90" length="23.23" shape="173.78,489.49 166.00,488.59 159.79,487.16 154.85,486.08 150.88,486.26"/>
    </edge>
    <edge id=":1_5" function="internal">
        <lane id=":1_5_0" index="0" speed="13.90" length="10.76" shape="174.02,483.09 168.11,481.96 164.07,479.47"/>
    </edge>
    <edge id=":1_14" function="internal">
        <lane id=":1_14_0" index="0" speed="13.90" length="13.55" shape="164.07,479.47 163.39,479.05 159.85,474.37 157.49,467.91"/>
    </edge>
    <edge id=":1_6" function="internal">
        <lane id=":1_6_0" index="0" speed="13.90" length="14.64" shape="160.60,467.16 161.71,468.35 164.39,469.26 168.66,469.92 174.51,470.30"/>
    </edge>
    <edge id=":1_7" function="internal">
        <lane id=":1_7_0" index="0" speed="13.90" length="29.57" shape="160.60,467.16 162.11,471.62 164.31,477.79 166.34,485.81 167.32,495.80"/>
    </edge>
    <edge id=":1_8" function="internal">
        <lane id=":1_8_0" index="0" speed="13.90" length="13.16" shape="160.60,467.16 161.34,473.97 159.97,479.42 159.53,479.94"/>
    </edge>
    <edge id=":1_15" function="internal">
        <lane id=":1_15_0" index="0" speed="13.90" length="10.93" shape="159.53,479.94 156.48,483.52 150.88,486.26"/>
    </edge>
    <edge id=":1_9" function="internal">
        <lane id=":1_9_0" index="0" speed="13.90" length="19.17" shape="149.93,483.21 154.32,481.03 157.05,477.76 158.10,473.38 157.49,467.91"/>
    </edge>
    <edge id=":1_10" function="internal">
        <lane id=":1_10_0" index="0" speed="13.90" length="26.11" shape="149.93,483.21 153.92,480.99 159.02,477.61 165.69,474.60 174.39,473.50"/>
        <lane id=":1_10_1" index="1" speed="13.90" length="26.11" shape="149.93,483.21 153.98,481.50 159.17,479.22 165.83,477.30 174.26,476.70"/>
    </edge>
    <edge id=":1_12" function="internal">
        <lane id=":1_12_0" index="0" speed="13.90" length="12.90" shape="149.93,483.21 156.04,482.38 160.44,484.21 161.46,485.90"/>
    </edge>
    <edge id=":1_16" function="internal">
        <lane id=":1_16_0" index="0" speed="13.90" length="10.49" shape="161.46,485.90 163.14,488.70 164.12,495.85"/>
    </edge>
    <edge id=":115_0" function="internal">
        <lane id=":115_0_0" index="0" speed="13.90" length="50.47" shape="315.75,149.58 329.51,154.72 336.56,162.56 336.90,173.10 330.52,186.33"/>
    </edge>
    <edge id=":115_1" function="internal">
        <lane id=":115_1_0" index="0" speed="13.90" length="43.74" shape="315.06,152.70 326.98,157.16 333.09,163.95 333.38,173.09 327.86,184.56"/>
    </edge>
    <edge id=":115_2" function="internal">
        <lane id=":115_2_0" index="0" speed="13.90" length="37.01" shape="314.36,155.82 324.46,159.60 329.63,165.35 329.87,173.07 325.19,182.78"/>
    </edge>
    <edge id=":115_3" function="internal">
        <lane id=":115_3_0" index="0" speed="13.90" length="30.28" shape="313.67,158.95 321.93,162.03 326.16,166.74 326.36,173.06 322.53,181.00"/>
    </edge>
    <edge id=":115_4" function="internal">
        <lane id=":115_4_0" index="0" speed="13.90" length="3.36" shape="311.89,173.90 312.31,173.01 312.29,172.31 311.82,171.79 310.90,171.45"/>
    </edge>
    <edge id=":115_5" function="internal">
        <lane id=":115_5_0" index="0" speed="13.90" length="10.09" shape="314.55,175.67 315.82,173.03 315.76,170.92 314.35,169.35 311.59,168.32"/>
    </edge>
    <edge id=":115_6" function="internal">
        <lane id=":115_6_0" index="0" speed="13.90" length="16.82" shape="317.21,177.45 319.34,173.04 319.22,169.53 316.87,166.91 312.29,165.20"/>
    </edge>
    <edge id=":115_7" function="internal">
        <lane id=":115_7_0" index="0" speed="13.90" length="23.55" shape="319.87,179.23 322.85,173.05 322.69,168.13 319.40,164.47 312.98,162.07"/>
    </edge>
    <edge id=":12_0" function="internal">
        <lane id=":12_0_0" index="0" speed="13.90" length="33.63" shape="237.86,324.72 230.99,315.28 225.23,307.46 220.48,301.81 216.60,298.88"/>
    </edge>
    <edge id=":12_1" function="internal">
        <lane id=":12_1_0" index="0" speed="13.90" length="43.90" shape="237.86,324.72 230.68,314.37 225.98,305.85 222.17,296.84 217.66,285.02"/>
        <lane id=":12_1_1" index="1" speed="13.90" length="43.90" shape="240.43,322.81 233.32,312.58 228.76,304.32 225.09,295.58 220.65,283.87"/>
        <lane id=":12_1_2" index="2" speed="13.90" length="43.90" shape="243.00,320.91 235.95,310.79 231.53,302.80 228.01,294.31 223.63,282.73"/>
    </edge>
    <edge id=":12_4" function="internal">
        <lane id=":12_4_0" index="0" speed="13.90" length="15.79" shape="243.00,320.91 239.06,312.68 238.73,306.02"/>
    </edge>
    <edge id=":12_5" function="internal">
        <lane id=":12_5_0" index="0" speed="13.90" length="8.46" shape="245.57,319.00 242.14,311.68 242.13,311.30"/>
    </edge>
    <edge id=":12_6" function="internal">
        <lane id=":12_6_0" index="0" speed="13.90" length="7.75" shape="245.57,319.00 242.47,312.31 242.58,311.95"/>
    </edge>
    <edge id=":12_28" function="internal">
        <lane id=":12_28_0" index="0" speed="13.90" length="27.11" shape="238.73,306.02 238.60,303.29 241.61,292.73 248.09,281.01"/>
    </edge>
    <edge id=":12_29" function="internal">
        <lane id=":12_29_0" index="0" speed="13.90" length="30.50" shape="242.13,311.30 241.86,303.21 244.73,293.58 250.75,282.78"/>
    </edge>
    <edge id=":12_30" function="internal">
        <lane id=":12_30_0" index="0" speed="13.90" length="24.10" shape="242.58,311.95 244.10,306.98 250.46,302.99 261.55,300.34"/>
    </edge>
    <edge id=":12_7" function="internal">
        <lane id=":12_7_0" index="0" speed="13.90" length="9.76" shape="262.48,306.67 258.64,307.47 256.26,308.51 255.32,309.81 255.84,311.36"/>
    </edge>
    <edge id=":12_8" function="internal">
        <lane id=":12_8_0" index="0" speed="13.90" length="46.69" shape="262.48,306.67 251.79,306.33 237.57,304.02 224.34,301.08 216.60,298.88"/>
    </edge>
    <edge id=":12_9" function="internal">
        <lane id=":12_9_0" index="0" speed="13.90" length="47.69" shape="262.01,303.51 248.82,303.79 238.03,300.42 229.64,293.40 223.63,282.73"/>
    </edge>
    <edge id=":12_10" function="internal">
        <lane id=":12_10_0" index="0" speed="13.90" length="36.60" shape="262.01,303.51 250.88,303.74 245.29,300.37 245.24,293.38 250.75,282.78"/>
    </edge>
    <edge id=":12_11" function="internal">
        <lane id=":12_11_0" index="0" speed="13.90" length="9.77" shape="261.40,289.89 259.37,293.35 258.64,295.72 259.21,297.00 261.08,297.17"/>
    </edge>
    <edge id=":12_12" function="internal">
        <lane id=":12_12_0" index="0" speed="13.90" length="23.32" shape="261.40,289.89 257.23,296.95 254.92,302.88 254.46,307.69 255.84,311.36"/>
    </edge>
    <edge id=":12_13" function="internal">
        <lane id=":12_13_0" index="0" speed="13.90" length="27.21" shape="258.73,288.11 254.11,296.11 251.65,302.96 251.38,308.69 253.27,313.27"/>
    </edge>
    <edge id=":12_14" function="internal">
        <lane id=":12_14_0" index="0" speed="13.90" length="31.12" shape="256.07,286.34 250.98,295.26 248.39,303.05 248.30,309.69 250.71,315.18"/>
    </edge>
    <edge id=":12_15" function="internal">
        <lane id=":12_15_0" index="0" speed="13.90" length="17.82" shape="256.07,286.34 248.02,295.49 243.10,298.22"/>
    </edge>
    <edge id=":12_16" function="internal">
        <lane id=":12_16_0" index="0" speed="13.90" length="23.97" shape="253.41,284.56 245.63,293.52 238.58,296.00 234.66,293.54"/>
    </edge>
    <edge id=":12_31" function="internal">
        <lane id=":12_31_0" index="0" speed="13.90" length="27.53" shape="243.10,298.22 238.76,300.63 228.28,301.76 216.60,298.88"/>
    </edge>
    <edge id=":12_32" function="internal">
        <lane id=":12_32_0" index="0" speed="13.90" length="14.72" shape="234.66,293.54 232.24,292.02 226.62,281.58"/>
    </edge>
    <edge id=":12_17" function="internal">
        <lane id=":12_17_0" index="0" speed="13.90" length="6.06" shape="238.57,276.99 239.45,278.62 240.44,279.24 241.55,278.86 242.76,277.45"/>
    </edge>
    <edge id=":12_18" function="internal">
        <lane id=":12_18_0" index="0" speed="13.90" length="32.68" shape="238.57,276.99 243.18,286.59 248.47,293.15 254.44,296.68 261.08,297.17"/>
    </edge>
    <edge id=":12_19" function="internal">
        <lane id=":12_19_0" index="0" speed="13.90" length="40.01" shape="238.57,276.99 242.57,287.76 245.49,295.12 249.28,302.00 255.84,311.36"/>
        <lane id=":12_19_1" index="1" speed="13.90" length="40.01" shape="235.58,278.13 239.67,289.15 242.68,296.67 246.55,303.70 253.27,313.27"/>
        <lane id=":12_19_2" index="2" speed="13.90" length="40.01" shape="232.60,279.28 236.77,290.51 239.87,298.21 243.85,305.42 250.71,315.18"/>
        <lane id=":12_19_3" index="3" speed="13.90" length="40.01" shape="229.61,280.43 233.85,291.78 237.09,299.74 241.22,307.21 248.14,317.09"/>
    </edge>
    <edge id=":12_23" function="internal">
        <lane id=":12_23_0" index="0" speed="13.90" length="19.08" shape="229.61,280.43 232.81,292.04 231.72,298.99"/>
    </edge>
    <edge id=":12_33" function="internal">
        <lane id=":12_33_0" index="0" speed="13.90" length="15.86" shape="231.72,298.99 226.31,301.27 216.60,298.88"/>
    </edge>
    <edge id=":12_24" function="internal">
        <lane id=":12_24_0" index="0" speed="13.90" length="13.16" shape="217.79,295.91 219.58,295.94 220.15,294.14 219.51,290.50 217.66,285.02"/>
    </edge>
    <edge id=":12_25" function="internal">
        <lane id=":12_25_0" index="0" speed="13.90" length="34.78" shape="217.79,295.91 224.41,296.81 231.22,294.33 238.23,288.47 245.43,279.23"/>
    </edge>
    <edge id=":12_26" function="internal">
        <lane id=":12_26_0" index="0" speed="13.90" length="44.12" shape="217.79,295.91 225.19,297.59 237.70,299.36 251.19,300.52 261.55,300.34"/>
    </edge>
    <edge id=":12_27" function="internal">
        <lane id=":12_27_0" index="0" speed="13.90" length="9.64" shape="217.79,295.91 222.94,297.91 226.64,299.71"/>
    </edge>
    <edge id=":12_34" function="internal">
        <lane id=":12_34_0" index="0" speed="13.90" length="27.91" shape="226.64,299.71 230.57,301.62 239.39,307.77 248.14,317.09"/>
    </edge>
    <edge id=":18_0" function="internal">
        <lane id=":18_0_0" index="0" speed="13.90" length="12.88" shape="554.90,429.88 551.77,425.89 549.18,423.18 547.11,421.76 545.57,421.63"/>
    </edge>
    <edge id=":18_1" function="internal">
        <lane id=":18_1_0" index="0" speed="13.90" length="24.72" shape="554.90,429.88 550.88,423.35 548.86,418.07 547.41,412.99 545.09,407.02"/>
        <lane id=":18_1_1" index="1" speed="13.90" length="24.72" shape="557.49,427.99 553.58,421.64 551.66,416.53 550.28,411.56 547.98,405.64"/>
    </edge>
    <edge id=":18_3" function="internal">
        <lane id=":18_3_0" index="0" speed="13.90" length="20.50" shape="560.07,426.10 557.42,421.15 557.00,416.53 558.81,412.27 562.83,408.35"/>
    </edge>
    <edge id=":18_4" function="internal">
        <lane id=":18_4_0" index="0" speed="13.90" length="5.00" shape="568.49,416.10 567.51,417.06 567.07,418.10 567.17,419.23 567.82,420.44"/>
    </edge>
    <edge id=":18_5" function="internal">
        <lane id=":18_5_0" index="0" speed="13.90" length="22.71" shape="566.60,413.52 560.13,417.33 554.41,419.36 549.53,420.51 545.57,421.63"/>
    </edge>
    <edge id=":18_6" function="internal">
        <lane id=":18_6_0" index="0" speed="13.90" length="5.17" shape="564.72,410.93 560.12,413.28"/>
    </edge>
    <edge id=":18_14" function="internal">
        <lane id=":18_14_0" index="0" speed="13.90" length="15.80" shape="560.12,413.28 559.72,413.48 555.27,413.45 551.35,410.84 547.98,405.64"/>
    </edge>
    <edge id=":18_7" function="internal">
        <lane id=":18_7_0" index="0" speed="13.90" length="6.28" shape="553.75,402.88 554.64,404.06 555.82,404.50 557.29,404.21 559.06,403.18"/>
    </edge>
    <edge id=":18_8" function="internal">
        <lane id=":18_8_0" index="0" speed="13.90" length="22.93" shape="553.75,402.88 556.43,408.44 558.61,412.57 561.23,416.71 565.23,422.32"/>
        <lane id=":18_8_1" index="1" speed="13.90" length="22.93" shape="550.87,404.26 553.56,409.87 555.81,414.11 558.53,418.42 562.65,424.21"/>
    </edge>
    <edge id=":18_10" function="internal">
        <lane id=":18_10_0" index="0" speed="13.90" length="20.98" shape="550.87,404.26 552.83,410.14 552.60,414.99 550.18,418.82 545.57,421.63"/>
    </edge>
    <edge id=":18_11" function="internal">
        <lane id=":18_11_0" index="0" speed="13.90" length="13.11" shape="544.37,418.66 546.39,417.14 547.19,414.69 546.75,411.32 545.09,407.02"/>
    </edge>
    <edge id=":18_12" function="internal">
        <lane id=":18_12_0" index="0" speed="13.90" length="21.05" shape="544.37,418.66 547.73,416.73 551.22,413.83 555.43,410.13 560.95,405.76"/>
    </edge>
    <edge id=":18_13" function="internal">
        <lane id=":18_13_0" index="0" speed="13.90" length="13.36" shape="544.37,418.66 549.63,417.35 554.43,417.84 557.19,419.29"/>
    </edge>
    <edge id=":18_15" function="internal">
        <lane id=":18_15_0" index="0" speed="13.90" length="7.43" shape="557.19,419.29 558.77,420.13 562.65,424.21"/>
    </edge>
    <edge id=":2_0" function="internal">
        <lane id=":2_0_0" index="0" speed="13.90" length="12.23" shape="107.62,260.23 107.21,256.50 108.15,254.33 110.43,253.71 114.06,254.65"/>
    </edge>
    <edge id=":2_1" function="internal">
        <lane id=":2_1_0" index="0" speed="13.90" length="4.08" shape="112.88,257.62 111.67,257.31 110.91,257.52 110.60,258.24 110.73,259.48"/>
    </edge>
    <edge id=":37_0" function="internal">
        <lane id=":37_0_0" index="0" speed="13.90" length="29.95" shape="168.20,156.32 165.45,148.24 163.76,142.58 161.43,137.26 156.81,130.21"/>
        <lane id=":37_0_1" index="1" speed="13.90" length="29.95" shape="171.19,155.17 168.35,146.86 166.57,141.04 164.16,135.57 159.39,128.32"/>
        <lane id=":37_0_2" index="2" speed="13.90" length="29.95" shape="174.18,154.02 171.24,145.47 169.39,139.50 166.89,133.88 161.97,126.42"/>
        <lane id=":37_0_3" index="3" speed="13.90" length="29.95" shape="177.16,152.87 174.14,144.09 172.21,137.95 169.61,132.19 164.54,124.52"/>
    </edge>
    <edge id=":37_4" function="internal">
        <lane id=":37_4_0" index="0" speed="13.90" length="14.16" shape="177.16,152.87 173.97,140.16 174.22,139.14"/>
    </edge>
    <edge id=":37_5" function="internal">
        <lane id=":37_5_0" index="0" speed="13.90" length="12.51" shape="177.16,152.87 174.45,141.69 174.72,140.72"/>
    </edge>
    <edge id=":37_18" function="internal">
        <lane id=":37_18_0" index="0" speed="13.90" length="27.61" shape="174.22,139.14 175.94,132.01 183.06,128.44 195.34,129.45"/>
    </edge>
    <edge id=":37_19" function="internal">
        <lane id=":37_19_0" index="0" speed="13.90" length="25.27" shape="174.72,140.72 176.46,134.59 183.19,131.54 194.65,132.57"/>
    </edge>
    <edge id=":37_6" function="internal">
        <lane id=":37_6_0" index="0" speed="13.90" length="5.98" shape="191.88,145.07 190.06,144.91 189.00,145.39 188.68,146.51 189.11,148.28"/>
    </edge>
    <edge id=":37_7" function="internal">
        <lane id=":37_7_0" index="0" speed="13.90" length="10.01" shape="191.88,145.07 188.47,144.67 186.38,145.26 185.60,146.85 186.12,149.43"/>
    </edge>
    <edge id=":37_8" function="internal">
        <lane id=":37_8_0" index="0" speed="13.90" length="36.25" shape="191.88,145.07 180.14,143.17 171.60,141.85 164.44,138.42 156.81,130.21"/>
        <lane id=":37_8_1" index="1" speed="13.90" length="36.25" shape="192.57,141.95 181.49,140.21 173.40,139.09 166.59,135.99 159.39,128.32"/>
        <lane id=":37_8_2" index="2" speed="13.90" length="36.25" shape="193.26,138.82 182.84,137.25 175.19,136.34 168.75,133.56 161.97,126.42"/>
        <lane id=":37_8_3" index="3" speed="13.90" length="36.25" shape="193.95,135.70 184.19,134.30 176.99,133.59 170.91,131.14 164.54,124.52"/>
    </edge>
    <edge id=":37_12" function="internal">
        <lane id=":37_12_0" index="0" speed="13.90" length="23.99" shape="174.85,116.94 179.55,121.44 184.15,122.58 189.57,122.47 196.72,123.20"/>
        <lane id=":37_12_1" index="1" speed="13.90" length="23.99" shape="174.85,116.94 179.47,121.99 183.78,124.19 188.92,125.11 196.03,126.32"/>
    </edge>
    <edge id=":37_14" function="internal">
        <lane id=":37_14_0" index="0" speed="13.90" length="33.37" shape="174.85,116.94 180.52,125.43 183.49,131.78 185.71,138.55 189.11,148.28"/>
        <lane id=":37_14_1" index="1" speed="13.90" length="33.37" shape="172.28,118.83 177.79,127.12 180.67,133.33 182.82,139.94 186.12,149.43"/>
        <lane id=":37_14_2" index="2" speed="13.90" length="33.37" shape="169.70,120.73 175.06,128.81 177.85,134.87 179.92,141.32 183.14,150.58"/>
        <lane id=":37_14_3" index="3" speed="13.90" length="33.37" shape="167.12,122.63 172.34,130.50 175.03,136.41 177.03,142.71 180.15,151.72"/>
    </edge>
    <edge id=":8_0" function="internal">
        <lane id=":8_0_0" index="0" speed="13.90" length="27.79" shape="372.80,502.16 370.61,501.24 365.30,500.44 356.86,499.76 345.30,499.20"/>
    </edge>
    <edge id=":8_1" function="internal">
        <lane id=":8_1_0" index="0" speed="13.90" length="38.42" shape="372.80,502.16 367.12,494.45 361.67,488.64 355.61,482.33 348.10,473.11"/>
        <lane id=":8_1_1" index="1" speed="13.90" length="38.42" shape="375.50,500.43 369.80,492.70 364.33,486.86 358.23,480.49 350.67,471.21"/>
        <lane id=":8_1_2" index="2" speed="13.90" length="38.42" shape="378.19,498.70 372.48,490.96 366.98,485.07 360.84,478.65 353.23,469.30"/>
        <lane id=":8_1_3" index="3" speed="13.90" length="38.42" shape="378.19,498.70 355.80,467.39"/>
    </edge>
    <edge id=":8_5" function="internal">
        <lane id=":8_5_0" index="0" speed="13.90" length="21.59" shape="378.19,498.70 376.19,493.78 376.85,489.43 380.19,485.64 386.20,482.40"/>
    </edge>
    <edge id=":8_6" function="internal">
        <lane id=":8_6_0" index="0" speed="13.90" length="9.75" shape="387.39,485.37 385.43,486.64 384.58,488.42 384.86,490.71 386.26,493.51"/>
    </edge>
    <edge id=":8_7" function="internal">
        <lane id=":8_7_0" index="0" speed="13.90" length="43.23" shape="387.39,485.37 381.69,487.92 372.16,491.67 359.76,494.92 345.42,496.00"/>
        <lane id=":8_7_1" index="1" speed="13.90" length="43.23" shape="387.39,485.37 381.71,487.42 372.22,490.07 359.86,492.22 345.54,492.80"/>
    </edge>
    <edge id=":8_9" function="internal">
        <lane id=":8_9_0" index="0" speed="13.90" length="24.15" shape="387.39,485.37 380.15,486.36 372.48,483.70 365.60,478.34"/>
    </edge>
    <edge id=":8_18" function="internal">
        <lane id=":8_18_0" index="0" speed="13.90" length="14.72" shape="365.60,478.34 364.36,477.37 355.80,467.39"/>
    </edge>
    <edge id=":8_10" function="internal">
        <lane id=":8_10_0" index="0" speed="13.90" length="30.54" shape="366.08,459.76 373.93,470.05 379.90,477.25 383.99,481.37 386.20,482.40"/>
    </edge>
    <edge id=":8_11" function="internal">
        <lane id=":8_11_0" index="0" speed="13.90" length="39.15" shape="366.08,459.76 373.04,469.91 377.53,477.82 381.34,485.13 386.26,493.51"/>
        <lane id=":8_11_1" index="1" speed="13.90" length="39.15" shape="363.51,461.66 370.42,471.76 374.87,479.61 378.66,486.88 383.57,495.24"/>
        <lane id=":8_11_2" index="2" speed="13.90" length="39.15" shape="360.94,463.57 367.81,473.60 372.22,481.39 375.97,488.62 380.88,496.97"/>
    </edge>
    <edge id=":8_14" function="internal">
        <lane id=":8_14_0" index="0" speed="13.90" length="40.69" shape="358.37,465.48 364.63,476.48 364.60,484.17 358.28,488.55 345.66,489.60"/>
    </edge>
    <edge id=":8_15" function="internal">
        <lane id=":8_15_0" index="0" speed="13.90" length="6.24" shape="346.15,476.81 348.08,476.65 349.05,475.98 349.06,474.80 348.10,473.11"/>
    </edge>
    <edge id=":8_16" function="internal">
        <lane id=":8_16_0" index="0" speed="13.90" length="40.32" shape="346.03,480.01 360.08,480.97 371.87,482.19 380.77,482.92 386.20,482.40"/>
    </edge>
    <edge id=":8_17" function="internal">
        <lane id=":8_17_0" index="0" speed="13.90" length="9.56" shape="345.78,486.41 355.31,487.19"/>
    </edge>
    <edge id=":8_19" function="internal">
        <lane id=":8_19_0" index="0" speed="13.90" length="28.12" shape="355.31,487.19 358.86,487.48 369.07,489.60 376.41,492.76 380.88,496.97"/>
    </edge>

    <edge id="-11" from="10" to="1" priority="-1">
        <lane id="-11_0" index="0" speed="13.90" length="157.48" shape="-0.47,529.88 149.93,483.21"/>
    </edge>
    <edge id="-116" from="115" to="12" priority="-1">
        <lane id="-116_0" index="0" speed="13.90" length="124.51" shape="330.52,186.33 261.40,289.89"/>
        <lane id="-116_1" index="1" speed="13.90" length="124.51" shape="327.86,184.56 258.73,288.11"/>
        <lane id="-116_2" index="2" speed="13.90" length="124.51" shape="325.19,182.78 256.07,286.34"/>
        <lane id="-116_3" index="3" speed="13.90" length="124.51" shape="322.53,181.00 253.41,284.56"/>
    </edge>
    <edge id="-13" from="12" to="2" priority="-1">
        <lane id="-13_0" index="0" speed="13.90" length="111.63" shape="216.60,298.88 112.88,257.62"/>
    </edge>
    <edge id="-15" from="12" to="8" priority="-1">
        <lane id="-15_0" index="0" speed="13.90" length="184.86" shape="255.84,311.36 366.08,459.76"/>
        <lane id="-15_1" index="1" speed="13.90" length="184.86" shape="253.27,313.27 363.51,461.66"/>
        <lane id="-15_2" index="2" speed="13.90" length="184.86" shape="250.71,315.18 360.94,463.57"/>
        <lane id="-15_3" index="3" speed="13.90" length="184.86" shape="248.14,317.09 358.37,465.48"/>
    </edge>
    <edge id="-19" from="18" to="8" priority="-1">
        <lane id="-19_0" index="0" speed="13.90" length="170.54" shape="545.57,421.63 387.39,485.37"/>
    </edge>
    <edge id="-220" from="219" to="18" priority="-1">
        <lane id="-220_0" index="0" speed="13.90" length="203.12" shape="732.60,296.42 568.49,416.10"/>
        <lane id="-220_1" index="1" speed="13.90" length="203.12" shape="730.72,293.83 566.60,413.52"/>
        <lane id="-220_2" index="2" speed="13.90" length="203.12" shape="728.83,291.25 564.72,410.93"/>
    </edge>
    <edge id="-222" from="221" to="18" priority="-1">
        <lane id="-222_0" index="0" speed="13.90" length="126.74" shape="499.08,288.54 553.75,402.88"/>
        <lane id="-222_1" index="1" speed="13.90" length="126.74" shape="496.19,289.92 550.87,404.26"/>
    </edge>
    <edge id="-224" from="223" to="18" priority="-1">
        <lane id="-224_0" index="0" speed="13.90" length="211.26" shape="679.66,600.37 554.90,429.88"/>
        <lane id="-224_1" index="1" speed="13.90" length="211.26" shape="682.24,598.48 557.49,427.99"/>
        <lane id="-224_2" index="2" speed="13.90" length="211.26" shape="684.82,596.59 560.07,426.10"/>
    </edge>
    <edge id="-25" from="24" to="8" priority="-1">
        <lane id="-25_0" index="0" speed="13.90" length="204.27" shape="483.22,674.01 372.80,502.16"/>
        <lane id="-25_1" index="1" speed="13.90" length="204.27" shape="485.91,672.28 375.50,500.43"/>
        <lane id="-25_2" index="2" speed="13.90" length="204.27" shape="488.60,670.55 378.19,498.70"/>
    </edge>
    <edge id="-3" from="2" to="1" priority="-1">
        <lane id="-3_0" index="0" speed="13.90" length="213.58" shape="110.73,259.48 160.60,467.16"/>
    </edge>
    <edge id="-328" from="115" to="37" priority="-1">
        <lane id="-328_0" index="0" speed="13.90" length="121.91" shape="310.90,171.45 191.88,145.07"/>
        <lane id="-328_1" index="1" speed="13.90" length="121.91" shape="311.59,168.32 192.57,141.95"/>
        <lane id="-328_2" index="2" speed="13.90" length="121.91" shape="312.29,165.20 193.26,138.82"/>
        <lane id="-328_3" index="3" speed="13.90" length="121.91" shape="312.98,162.07 193.95,135.70"/>
    </edge>
    <edge id="-332" from="331" to="37" priority="-1">
        <lane id="-332_0" index="0" speed="13.90" length="153.41" shape="83.95,-6.64 174.85,116.94"/>
        <lane id="-332_1" index="1" speed="13.90" length="153.41" shape="81.37,-4.74 172.28,118.83"/>
        <lane id="-332_2" index="2" speed="13.90" length="153.41" shape="78.79,-2.84 169.70,120.73"/>
        <lane id="-332_3" index="3" speed="13.90" length="153.41" shape="76.21,-0.95 167.12,122.63"/>
    </edge>
    <edge id="-38" from="37" to="12" priority="-1">
        <lane id="-38_0" index="0" speed="13.90" length="137.88" shape="189.11,148.28 238.57,276.99"/>
        <lane id="-38_1" index="1" speed="13.90" length="137.88" shape="186.12,149.43 235.58,278.13"/>
        <lane id="-38_2" index="2" speed="13.90" length="137.88" shape="183.14,150.58 232.60,279.28"/>
        <lane id="-38_3" index="3" speed="13.90" length="137.88" shape="180.15,151.72 229.61,280.43"/>
    </edge>
    <edge id="-64" from="63" to="12" priority="-1">
        <lane id="-64_0" index="0" speed="13.90" length="130.26" shape="391.36,287.77 262.48,306.67"/>
        <lane id="-64_1" index="1" speed="13.90" length="130.26" shape="390.89,284.60 262.01,303.51"/>
    </edge>
    <edge id="-7" from="6" to="1" priority="-1">
        <lane id="-7_0" index="0" speed="13.90" length="196.65" shape="157.61,692.63 154.52,496.00"/>
        <lane id="-7_1" index="1" speed="13.90" length="196.65" shape="160.81,692.58 157.72,495.95"/>
        <lane id="-7_2" index="2" speed="13.90" length="196.65" shape="164.01,692.53 160.92,495.90"/>
    </edge>
    <edge id="-9" from="8" to="1" priority="-1">
        <lane id="-9_0" index="0" speed="13.90" length="171.76" shape="345.30,499.20 173.66,492.69"/>
        <lane id="-9_1" index="1" speed="13.90" length="171.76" shape="345.42,496.00 173.78,489.49"/>
        <lane id="-9_2" index="2" speed="13.90" length="171.76" shape="345.54,492.80 173.90,486.29"/>
        <lane id="-9_3" index="3" speed="13.90" length="171.76" shape="345.66,489.60 174.02,483.09"/>
    </edge>
    <edge id="11" from="1" to="10" priority="-1">
        <lane id="11_0" index="0" speed="13.90" length="157.48" shape="150.88,486.26 0.47,532.94"/>
    </edge>
    <edge id="116" from="12" to="115" priority="-1">
        <lane id="116_0" index="0" speed="13.90" length="124.51" shape="242.76,277.45 311.89,173.90"/>
        <lane id="116_1" index="1" speed="13.90" length="124.51" shape="245.43,279.23 314.55,175.67"/>
        <lane id="116_2" index="2" speed="13.90" length="124.51" shape="248.09,281.01 317.21,177.45"/>
        <lane id="116_3" index="3" speed="13.90" length="124.51" shape="250.75,282.78 319.87,179.23"/>
    </edge>
    <edge id="13" from="2" to="12" priority="-1">
        <lane id="13_0" index="0" speed="13.90" length="111.63" shape="114.06,254.65 217.79,295.91"/>
    </edge>
    <edge id="15" from="8" to="12" priority="-1">
        <lane id="15_0" index="0" speed="13.90" length="184.86" shape="348.10,473.11 237.86,324.72"/>
        <lane id="15_1" index="1" speed="13.90" length="184.86" shape="350.67,471.21 240.43,322.81"/>
        <lane id="15_2" index="2" speed="13.90" length="184.86" shape="353.23,469.30 243.00,320.91"/>
        <lane id="15_3" index="3" speed="13.90" length="184.86" shape="355.80,467.39 245.57,319.00"/>
    </edge>
    <edge id="19" from="8" to="18" priority="-1">
        <lane id="19_0" index="0" speed="13.90" length="170.54" shape="386.20,482.40 544.37,418.66"/>
    </edge>
    <edge id="220" from="18" to="219" priority="-1">