<?xml version="1.0" encoding="UTF-8"?>

<!-- generated on Mon Jan  8 22:28:44 2018 by SUMO netgenerate Version 0.30.0
<?xml version="1.0" encoding="UTF-8"?>

<configuration xmlns:xsi="http://www.w3.org/2001/XMLSchema-instance" xsi:noNamespaceSchemaLocation="http://sumo.dlr.de/xsd/netgenerateConfiguration.xsd">

    <random_network>
        <rand value="true"/>
        <rand.iterations value="30"/>
        <rand.neighbor-dist5 value="0"/>
        <rand.neighbor-dist6 value="0"/>
    </random_network>

    <output>
        <output-file value="../examples/data/city/city.net.xml"/>
    </output>

    <tls_building>
        <tls.guess value="true"/>
        <tls.left-green.time value="0"/>
    </tls_building>

    <processing>
        <no-turnarounds value="true"/>
    </processing>

    <building_defaults>
        <default.lanenumber value="2"/>
    </building_defaults>

</configuration>
-->

<net version="0.27" xmlns:xsi="http://www.w3.org/2001/XMLSchema-instance" xsi:noNamespaceSchemaLocation="http://sumo.dlr.de/xsd/net_file.xsd">

    <location netOffset="586.96,718.11" convBoundary="0.00,0.00,1183.65,1118.95" origBoundary="-586.96,-718.11,596.68,400.84" projParameter="!"/>

    <edge id=":1_0" function="internal">
        <lane id=":1_0_0" index="0" speed="13.90" length="5.38" shape="582.18,728.43 581.93,726.91 581.27,725.98 580.17,725.63 578.65,725.88"/>
    </edge>
    <edge id=":1_1" function="internal">
        <lane id=":1_1_0" index="0" speed="13.90" length="17.12" shape="582.18,728.43 582.11,723.46 581.95,720.05 581.45,716.69 580.37,711.84"/>
        <lane id=":1_1_1" index="1" speed="13.90" length="17.12" shape="585.48,728.38 585.41,723.20 585.24,719.64 584.71,716.12 583.58,711.07"/>
    </edge>
    <edge id=":1_3" function="internal">
        <lane id=":1_3_0" index="0" speed="13.90" length="7.45" shape="585.48,728.38 586.03,723.16 587.02,721.19"/>
    </edge>
    <edge id=":1_16" function="internal">
        <lane id=":1_16_0" index="0" speed="13.90" length="10.16" shape="587.02,721.19 587.87,719.49 591.01,717.36 595.43,716.78"/>
    </edge>
    <edge id=":1_4" function="internal">
        <lane id=":1_4_0" index="0" speed="13.90" length="6.59" shape="595.18,723.38 593.79,723.64 592.81,724.54 592.24,726.09 592.07,728.28"/>
    </edge>
    <edge id=":1_5" function="internal">
        <lane id=":1_5_0" index="0" speed="13.90" length="17.43" shape="595.18,723.38 590.20,723.29 586.78,723.58 583.42,724.40 578.65,725.88"/>
        <lane id=":1_5_1" index="1" speed="13.90" length="17.43" shape="595.31,720.08 589.99,719.98 586.34,720.28 582.76,721.15 577.67,722.72"/>
    </edge>
    <edge id=":1_7" function="internal">
        <lane id=":1_7_0" index="0" speed="13.90" length="6.68" shape="595.31,720.08 590.95,719.38 588.93,718.35"/>
    </edge>
    <edge id=":1_17" function="internal">
        <lane id=":1_17_0" index="0" speed="13.90" length="9.34" shape="588.93,718.35 587.55,717.65 585.09,714.88 583.58,711.07"/>
    </edge>
    <edge id=":1_8" function="internal">
        <lane id=":1_8_0" index="0" speed="13.90" length="7.39" shape="589.99,709.53 590.68,711.19 591.84,712.41 593.46,713.17 595.56,713.48"/>
    </edge>
    <edge id=":1_9" function="internal">
        <lane id=":1_9_0" index="0" speed="13.90" length="18.57" shape="589.99,709.53 591.23,715.00 591.81,718.81 592.00,722.66 592.07,728.28"/>
        <lane id=":1_9_1" index="1" speed="13.90" length="18.57" shape="586.79,710.30 587.97,715.56 588.52,719.22 588.70,722.93 588.78,728.33"/>
    </edge>
    <edge id=":1_11" function="internal">
        <lane id=":1_11_0" index="0" speed="13.90" length="5.93" shape="586.79,710.30 587.02,714.43 586.32,716.09"/>
    </edge>
    <edge id=":1_18" function="internal">
        <lane id=":1_18_0" index="0" speed="13.90" length="11.33" shape="586.32,716.09 585.58,717.87 582.46,720.64 577.67,722.72"/>
    </edge>
    <edge id=":1_12" function="internal">
        <lane id=":1_12_0" index="0" speed="13.90" length="7.18" shape="575.71,716.42 578.01,715.51 579.55,714.45 580.34,713.22 580.37,711.84"/>
    </edge>
    <edge id=":1_13" function="internal">
        <lane id=":1_13_0" index="0" speed="13.90" length="19.68" shape="575.71,716.42 581.44,714.66 585.47,713.70 589.58,713.37 595.56,713.48"/>
        <lane id=":1_13_1" index="1" speed="13.90" length="19.68" shape="576.69,719.57 582.10,717.90 585.90,716.99 589.78,716.67 595.43,716.78"/>
    </edge>
    <edge id=":1_15" function="internal">
        <lane id=":1_15_0" index="0" speed="13.90" length="7.12" shape="576.69,719.57 581.90,718.74 583.65,719.29"/>
    </edge>
    <edge id=":1_19" function="internal">
        <lane id=":1_19_0" index="0" speed="13.90" length="11.31" shape="583.65,719.29 585.66,719.92 587.95,723.12 588.78,728.33"/>
    </edge>
    <edge id=":104_0" function="internal">
        <lane id=":104_0_0" index="0" speed="13.90" length="12.67" shape="293.78,226.36 288.82,226.48 285.16,226.93 282.80,227.72 281.75,228.83"/>
    </edge>
    <edge id=":104_1" function="internal">
        <lane id=":104_1_0" index="0" speed="13.90" length="23.72" shape="293.81,223.06 286.52,222.10 282.94,219.36 283.06,214.86 286.89,208.58"/>
    </edge>
    <edge id=":104_2" function="internal">
        <lane id=":104_2_0" index="0" speed="13.90" length="6.20" shape="292.06,212.68 291.06,214.32 291.03,215.50 291.96,216.21 293.87,216.46"/>
    </edge>
    <edge id=":104_3" function="internal">
        <lane id=":104_3_0" index="0" speed="13.90" length="19.99" shape="292.06,212.68 288.34,217.08 285.74,220.14 283.73,223.51 281.75,228.83"/>
        <lane id=":104_3_1" index="1" speed="13.90" length="19.99" shape="289.47,210.63 285.57,215.28 282.82,218.60 280.68,222.24 278.60,227.85"/>
    </edge>
    <edge id=":104_5" function="internal">
        <lane id=":104_5_0" index="0" speed="13.90" length="22.39" shape="272.30,225.90 274.55,219.94 277.08,215.57 280.22,211.52 284.30,206.53"/>
        <lane id=":104_5_1" index="1" speed="13.90" length="22.39" shape="275.45,226.87 277.62,221.09 279.95,217.08 282.90,213.40 286.89,208.58"/>
    </edge>
    <edge id=":104_7" function="internal">
        <lane id=":104_7_0" index="0" speed="13.90" length="5.21" shape="275.45,226.87 277.45,223.71 278.71,222.95"/>
    </edge>
    <edge id=":104_8" function="internal">
        <lane id=":104_8_0" index="0" speed="13.90" length="15.71" shape="278.71,222.95 281.17,221.47 286.64,220.15 293.84,219.76"/>
    </edge>
    <edge id=":110_0" function="internal">
        <lane id=":110_0_0" index="0" speed="13.90" length="11.36" shape="46.32,500.12 41.96,498.95 38.75,498.57 36.68,498.97 35.76,500.16"/>
    </edge>
    <edge id=":110_1" function="internal">
        <lane id=":110_1_0" index="0" speed="13.90" length="24.66" shape="47.32,496.98 40.28,493.78 37.60,490.04 39.29,485.76 45.33,480.94"/>
    </edge>
    <edge id=":110_2" function="internal">
        <lane id=":110_2_0" index="0" speed="13.90" length="6.35" shape="48.80,486.56 47.25,487.80 46.81,488.90 47.50,489.86 49.31,490.69"/>
    </edge>
    <edge id=":110_3" function="internal">
        <lane id=":110_3_0" index="0" speed="13.90" length="20.57" shape="48.80,486.56 43.63,490.10 39.73,493.55 37.11,496.90 35.76,500.16"/>
        <lane id=":110_3_1" index="1" speed="13.90" length="20.57" shape="47.07,483.75 41.36,487.70 37.03,491.63 34.09,495.55 32.54,499.45"/>
    </edge>
    <edge id=":110_5" function="internal">
        <lane id=":110_5_0" index="0" speed="13.90" length="25.82" shape="26.09,498.02 28.06,492.84 31.63,487.80 36.81,482.90 43.60,478.14"/>
        <lane id=":110_5_1" index="1" speed="13.90" length="25.82" shape="29.31,498.73 31.08,494.19 34.33,489.72 39.08,485.30 45.33,480.94"/>
    </edge>
    <edge id=":110_7" function="internal">
        <lane id=":110_7_0" index="0" speed="13.90" length="7.55" shape="29.31,498.73 31.35,494.59 33.90,493.14"/>
    </edge>
    <edge id=":110_8" function="internal">
        <lane id=":110_8_0" index="0" speed="13.90" length="14.80" shape="33.90,493.14 35.20,492.40 40.85,492.14 48.31,493.83"/>
    </edge>
    <edge id=":119_0" function="internal">
        <lane id=":119_0_0" index="0" speed="13.90" length="28.51" shape="1184.43,904.01 1186.03,914.44 1183.82,920.11 1177.80,921.04 1167.97,917.21"/>
        <lane id=":119_0_1" index="1" speed="13.90" length="28.51" shape="1181.25,904.88 1182.39,912.32 1180.81,916.36 1176.52,917.02 1169.51,914.29"/>
    </edge>
    <edge id=":119_2" function="internal">
        <lane id=":119_2_0" index="0" speed="13.90" length="9.41" shape="1172.59,908.46 1173.96,908.99 1174.80,908.86 1175.11,908.07 1174.88,906.62"/>
        <lane id=":119_2_1" index="1" speed="13.90" length="9.41" shape="1171.05,911.37 1175.24,913.01 1177.81,912.61 1178.75,910.19 1178.07,905.75"/>
    </edge>
    <edge id=":12_0" function="internal">
        <lane id=":12_0_0" index="0" speed="13.90" length="25.54" shape="665.65,555.50 661.23,550.38 656.61,546.66 651.37,543.75 645.07,541.06"/>
    </edge>
    <edge id=":12_1" function="internal">
        <lane id=":12_1_0" index="0" speed="13.90" length="29.64" shape="665.65,555.50 661.46,549.28 657.77,542.72 654.53,535.91 651.67,528.96"/>
        <lane id=":12_1_1" index="1" speed="13.90" length="29.64" shape="668.30,553.53 664.17,547.43 660.63,541.14 657.54,534.61 654.75,527.77"/>
    </edge>
    <edge id=":12_3" function="internal">
        <lane id=":12_3_0" index="0" speed="13.90" length="8.35" shape="668.30,553.53 665.27,548.05 665.26,545.97"/>
    </edge>
    <edge id=":12_15" function="internal">
        <lane id=":12_15_0" index="0" speed="13.90" length="12.64" shape="665.26,545.97 665.26,543.82 668.26,540.84 674.28,539.11"/>
    </edge>
    <edge id=":12_4" function="internal">
        <lane id=":12_4_0" index="0" speed="13.90" length="5.76" shape="675.24,545.64 673.59,546.11 672.76,546.93 672.77,548.09 673.60,549.60"/>
    </edge>
    <edge id=":12_5" function="internal">
        <lane id=":12_5_0" index="0" speed="13.90" length="29.98" shape="675.24,545.64 667.66,546.05 659.93,545.28 652.31,543.54 645.07,541.06"/>
        <lane id=":12_5_1" index="1" speed="13.90" length="29.98" shape="674.76,542.37 667.45,542.82 660.30,542.11 653.27,540.44 646.29,538.00"/>
    </edge>
    <edge id=":12_7" function="internal">
        <lane id=":12_7_0" index="0" speed="13.90" length="9.13" shape="674.76,542.37 668.40,542.21 665.88,541.06"/>
    </edge>
    <edge id=":12_16" function="internal">
        <lane id=":12_16_0" index="0" speed="13.90" length="17.87" shape="665.88,541.06 662.94,539.72 658.39,534.91 654.75,527.77"/>
    </edge>
    <edge id=":12_8" function="internal">
        <lane id=":12_8_0" index="0" speed="13.90" length="18.01" shape="660.91,525.41 663.40,530.43 666.38,533.85 669.84,535.65 673.80,535.84"/>
    </edge>
    <edge id=":12_9" function="internal">
        <lane id=":12_9_0" index="0" speed="13.90" length="27.85" shape="660.91,525.41 663.57,531.99 666.36,537.99 669.60,543.74 673.60,549.60"/>
        <lane id=":12_9_1" index="1" speed="13.90" length="27.85" shape="657.83,526.59 660.56,533.30 663.50,539.57 666.89,545.59 670.95,551.56"/>
    </edge>
    <edge id=":12_11" function="internal">
        <lane id=":12_11_0" index="0" speed="13.90" length="8.91" shape="657.83,526.59 659.83,534.38 659.60,535.21"/>
    </edge>
    <edge id=":12_17" function="internal">
        <lane id=":12_17_0" index="0" speed="13.90" length="16.53" shape="659.60,535.21 658.57,538.88 654.06,540.09 646.29,538.00"/>
    </edge>
    <edge id=":12_12" function="internal">
        <lane id=":12_12_0" index="0" speed="13.90" length="6.48" shape="648.73,531.86 650.71,532.40 651.86,532.09 652.18,530.94 651.67,528.96"/>
    </edge>
    <edge id=":12_13" function="internal">
        <lane id=":12_13_0" index="0" speed="13.90" length="27.44" shape="647.51,534.93 654.22,537.35 660.67,538.95 667.23,539.59 674.28,539.11"/>
    </edge>
    <edge id=":12_14" function="internal">
        <lane id=":12_14_0" index="0" speed="13.90" length="29.11" shape="647.51,534.93 654.25,537.96 660.48,541.62 666.08,546.10 670.95,551.56"/>
    </edge>
    <edge id=":14_0" function="internal">
        <lane id=":14_0_0" index="0" speed="13.90" length="10.76" shape="472.89,368.84 471.10,365.17 469.45,362.57 467.95,361.03 466.58,360.56"/>
    </edge>
    <edge id=":14_1" function="internal">
        <lane id=":14_1_0" index="0" speed="13.90" length="21.12" shape="475.91,367.50 474.14,361.44 475.07,357.30 478.68,355.07 484.99,354.76"/>
    </edge>
    <edge id=":14_2" function="internal">
        <lane id=":14_2_0" index="0" speed="13.90" length="5.78" shape="484.43,361.34 482.70,361.42 481.71,362.03 481.46,363.17 481.94,364.83"/>
    </edge>
    <edge id=":14_3" function="internal">
        <lane id=":14_3_0" index="0" speed="13.90" length="18.11" shape="484.43,361.34 479.14,360.84 475.51,360.51 471.88,360.40 466.58,360.56"/>
        <lane id=":14_3_1" index="1" speed="13.90" length="18.11" shape="484.71,358.05 479.29,357.54 475.58,357.21 471.86,357.10 466.43,357.27"/>
    </edge>
    <edge id=":14_5" function="internal">
        <lane id=":14_5_0" index="0" speed="13.90" length="18.97" shape="466.13,350.67 471.81,350.50 475.71,350.60 479.60,350.95 485.27,351.48"/>
        <lane id=":14_5_1" index="1" speed="13.90" length="18.97" shape="466.28,353.97 471.84,353.80 475.64,353.91 479.44,354.24 484.99,354.76"/>
    </edge>
    <edge id=":14_7" function="internal">
        <lane id=":14_7_0" index="0" speed="13.90" length="5.13" shape="466.28,353.97 469.73,354.61 471.06,355.52"/>
    </edge>
    <edge id=":14_8" function="internal">
        <lane id=":14_8_0" index="0" speed="13.90" length="13.43" shape="471.06,355.52 472.99,356.85 476.06,360.71 478.93,366.16"/>
    </edge>
    <edge id=":144_0" function="internal">
        <lane id=":144_0_0" index="0" speed="13.90" length="6.85" shape="422.52,51.67 421.91,50.90 421.27,50.61 420.59,50.80 419.88,51.48"/>
        <lane id=":144_0_1" index="1" speed="13.90" length="6.85" shape="425.37,50.01 423.51,47.65 421.54,46.76 419.47,47.36 417.29,49.43"/>
    </edge>
    <edge id=":144_2" function="internal">
        <lane id=":144_2_0" index="0" speed="13.90" length="20.76" shape="412.12,45.33 417.23,40.46 422.09,39.07 426.71,41.14 431.07,46.69"/>
        <lane id=":144_2_1" index="1" speed="13.90" length="20.76" shape="414.71,47.38 418.35,43.91 421.82,42.92 425.11,44.40 428.22,48.35"/>
    </edge>
    <edge id=":18_0" function="internal">
        <lane id=":18_0_0" index="0" speed="13.90" length="11.90" shape="981.05,660.59 979.47,660.07 977.04,660.23 973.75,661.06 969.61,662.56"/>
    </edge>
    <edge id=":18_1" function="internal">
        <lane id=":18_1_0" index="0" speed="13.90" length="18.40" shape="981.05,660.59 966.55,649.15"/>
        <lane id=":18_1_1" index="1" speed="13.90" length="18.40" shape="983.02,657.94 968.63,646.59"/>
    </edge>
    <edge id=":18_3" function="internal">
        <lane id=":18_3_0" index="0" speed="13.90" length="5.23" shape="983.02,657.94 980.83,655.38 980.26,653.60"/>
    </edge>
    <edge id=":18_14" function="internal">
        <lane id=":18_14_0" index="0" speed="13.90" length="12.96" shape="980.26,653.60 979.64,651.66 979.45,646.80 980.25,640.79"/>
    </edge>
    <edge id=":18_4" function="internal">
        <lane id=":18_4_0" index="0" speed="13.90" length="10.87" shape="986.72,642.07 986.07,646.13 985.88,649.25 986.18,651.42 986.95,652.64"/>
    </edge>
    <edge id=":18_5" function="internal">
        <lane id=":18_5_0" index="0" speed="13.90" length="24.59" shape="983.48,641.43 981.58,647.44 978.42,652.46 974.03,656.48 968.38,659.50"/>
    </edge>
    <edge id=":18_6" function="internal">
        <lane id=":18_6_0" index="0" speed="13.90" length="10.87" shape="983.48,641.43 981.46,647.31 978.31,650.14 977.89,650.11"/>
    </edge>
    <edge id=":18_15" function="internal">
        <lane id=":18_15_0" index="0" speed="13.90" length="10.20" shape="977.89,650.11 974.03,649.89 968.63,646.59"/>
    </edge>
    <edge id=":18_7" function="internal">
        <lane id=":18_7_0" index="0" speed="13.90" length="5.92" shape="972.79,641.46 974.33,642.42 975.55,642.52 976.44,641.76 977.01,640.15"/>
    </edge>
    <edge id=":18_8" function="internal">
        <lane id=":18_8_0" index="0" speed="13.90" length="18.11" shape="972.79,641.46 986.95,652.64"/>
        <lane id=":18_8_1" index="1" speed="13.90" length="18.11" shape="970.71,644.02 984.98,655.29"/>
    </edge>
    <edge id=":18_10" function="internal">
        <lane id=":18_10_0" index="0" speed="13.90" length="7.61" shape="970.71,644.02 975.05,648.63 975.37,649.87"/>
    </edge>
    <edge id=":18_16" function="internal">
        <lane id=":18_16_0" index="0" speed="13.90" length="13.56" shape="975.37,649.87 976.12,652.75 973.89,656.37 968.38,659.50"/>
    </edge>
    <edge id=":18_11" function="internal">
        <lane id=":18_11_0" index="0" speed="13.90" length="5.79" shape="965.91,653.38 967.42,652.52 968.03,651.53 967.74,650.41 966.55,649.15"/>
    </edge>
    <edge id=":18_12" function="internal">
        <lane id=":18_12_0" index="0" speed="13.90" length="21.31" shape="967.15,656.44 972.05,653.82 975.86,650.34 978.59,645.99 980.25,640.79"/>
    </edge>
    <edge id=":18_13" function="internal">
        <lane id=":18_13_0" index="0" speed="13.90" length="7.25" shape="967.15,656.44 972.97,654.47 974.06,654.28"/>
    </edge>
    <edge id=":18_17" function="internal">
        <lane id=":18_17_0" index="0" speed="13.90" length="11.30" shape="974.06,654.28 977.89,653.62 981.89,653.89 984.98,655.29"/>
    </edge>
    <edge id=":2_0" function="internal">
        <lane id=":2_0_0" index="0" speed="13.90" length="17.71" shape="530.90,505.82 529.80,500.76 529.10,497.27 528.13,493.88 526.19,489.11"/>
        <lane id=":2_0_1" index="1" speed="13.90" length="17.71" shape="534.11,505.05 532.97,499.82 532.24,496.21 531.22,492.71 529.21,487.77"/>
    </edge>
    <edge id=":2_2" function="internal">
        <lane id=":2_2_0" index="0" speed="13.90" length="8.71" shape="534.11,505.05 533.34,498.08 534.02,496.52"/>
    </edge>
    <edge id=":2_8" function="internal">
        <lane id=":2_8_0" index="0" speed="13.90" length="14.16" shape="534.02,496.52 535.10,494.02 539.37,492.86 546.15,494.61"/>
    </edge>
    <edge id=":2_3" function="internal">
        <lane id=":2_3_0" index="0" speed="13.90" length="6.06" shape="543.71,500.74 541.92,500.28 540.79,500.59 540.32,501.66 540.52,503.51"/>
    </edge>
    <edge id=":2_4" function="internal">
        <lane id=":2_4_0" index="0" speed="13.90" length="19.49" shape="544.93,497.68 539.36,495.87 535.25,494.62 532.04,492.42 529.21,487.77"/>
    </edge>
    <edge id=":2_5" function="internal">
        <lane id=":2_5_0" index="0" speed="13.90" length="14.46" shape="535.24,485.10 537.42,488.40 539.96,489.72 543.18,490.35 547.37,491.54"/>
    </edge>
    <edge id=":2_6" function="internal">
        <lane id=":2_6_0" index="0" speed="13.90" length="18.91" shape="535.24,485.10 537.39,490.36 538.50,494.09 539.30,497.93 540.52,503.51"/>
        <lane id=":2_6_1" index="1" speed="13.90" length="18.91" shape="532.23,486.44 534.30,491.53 535.37,495.15 536.13,498.88 537.32,504.28"/>
    </edge>
    <edge id=":24_0" function="internal">
        <lane id=":24_0_0" index="0" speed="13.90" length="9.24" shape="917.09,916.16 915.24,914.79 913.20,914.14 910.96,914.22 908.53,915.03"/>
    </edge>
    <edge id=":24_1" function="internal">
        <lane id=":24_1_0" index="0" speed="13.90" length="18.33" shape="917.09,916.16 913.19,912.22 910.68,909.37 908.46,906.28 905.45,901.62"/>
        <lane id=":24_1_1" index="1" speed="13.90" length="18.33" shape="919.41,913.82 915.66,910.03 913.25,907.29 911.12,904.31 908.22,899.84"/>
    </edge>
    <edge id=":24_3" function="internal">
        <lane id=":24_3_0" index="0" speed="13.90" length="6.45" shape="919.41,913.82 916.78,910.24 916.39,908.27"/>
    </edge>
    <edge id=":24_16" function="internal">
        <lane id=":24_16_0" index="0" speed="13.90" length="10.35" shape="916.39,908.27 916.06,906.62 917.25,902.97 920.35,899.27"/>
    </edge>
    <edge id=":24_4" function="internal">
        <lane id=":24_4_0" index="0" speed="13.90" length="5.79" shape="924.81,904.14 923.63,905.48 923.12,906.76 923.26,907.98 924.06,909.13"/>
    </edge>
    <edge id=":24_5" function="internal">
        <lane id=":24_5_0" index="0" speed="13.90" length="19.22" shape="924.81,904.14 920.47,908.05 917.29,910.52 913.81,912.52 908.53,915.03"/>
        <lane id=":24_5_1" index="1" speed="13.90" length="19.22" shape="922.58,901.70 918.46,905.41 915.45,907.76 912.15,909.66 907.14,912.04"/>
    </edge>
    <edge id=":24_7" function="internal">
        <lane id=":24_7_0" index="0" speed="13.90" length="6.93" shape="922.58,901.70 918.57,904.43 916.51,904.76"/>
    </edge>
    <edge id=":24_17" function="internal">
        <lane id=":24_17_0" index="0" speed="13.90" length="10.31" shape="916.51,904.76 914.85,905.03 911.40,903.50 908.22,899.84"/>
    </edge>
    <edge id=":24_8" function="internal">
        <lane id=":24_8_0" index="0" speed="13.90" length="5.22" shape="913.78,896.27 914.74,897.38 915.78,897.84 916.91,897.66 918.12,896.84"/>
    </edge>
    <edge id=":24_9" function="internal">
        <lane id=":24_9_0" index="0" speed="13.90" length="16.88" shape="913.78,896.27 916.44,900.39 918.39,903.12 920.61,905.65 924.06,909.13"/>
        <lane id=":24_9_1" index="1" speed="13.90" length="16.88" shape="911.00,898.06 913.78,902.35 915.82,905.21 918.14,907.84 921.73,911.47"/>
    </edge>
    <edge id=":24_11" function="internal">
        <lane id=":24_11_0" index="0" speed="13.90" length="6.63" shape="911.00,898.06 913.02,902.45 913.04,904.24"/>
    </edge>
    <edge id=":24_18" function="internal">
        <lane id=":24_18_0" index="0" speed="13.90" length="10.48" shape="913.04,904.24 913.05,906.25 911.09,909.44 907.14,912.04"/>
    </edge>
    <edge id=":24_12" function="internal">
        <lane id=":24_12_0" index="0" speed="13.90" length="5.37" shape="904.37,906.05 905.57,905.25 906.15,904.24 906.11,903.03 905.45,901.62"/>
    </edge>
    <edge id=":24_13" function="internal">
        <lane id=":24_13_0" index="0" speed="13.90" length="17.18" shape="904.37,906.05 908.82,903.93 911.77,902.23 914.45,900.14 918.12,896.84"/>
        <lane id=":24_13_1" index="1" speed="13.90" length="17.18" shape="905.76,909.04 910.49,906.79 913.61,905.00 916.46,902.78 920.35,899.27"/>
    </edge>
    <edge id=":24_15" function="internal">
        <lane id=":24_15_0" index="0" speed="13.90" length="7.08" shape="905.76,909.04 910.21,907.59 912.61,907.55"/>
    </edge>
    <edge id=":24_19" function="internal">
        <lane id=":24_19_0" index="0" speed="13.90" length="10.23" shape="912.61,907.55 914.36,907.51 918.20,908.81 921.73,911.47"/>
    </edge>
    <edge id=":37_0" function="internal">
        <lane id=":37_0_0" index="0" speed="13.90" length="11.30" shape="591.63,372.73 590.64,371.65 588.55,370.77 585.36,370.07 581.08,369.57"/>
    </edge>
    <edge id=":37_1" function="internal">
        <lane id=":37_1_0" index="0" speed="13.90" length="20.76" shape="591.63,372.73 583.28,353.84"/>
        <lane id=":37_1_1" index="1" speed="13.90" length="20.76" shape="594.71,371.54 586.27,352.45"/>
    </edge>
    <edge id=":37_3" function="internal">
        <lane id=":37_3_0" index="0" speed="13.90" length="5.06" shape="594.71,371.54 594.16,368.06 594.36,366.54"/>
    </edge>
    <edge id=":37_14" function="internal">
        <lane id=":37_14_0" index="0" speed="13.90" length="16.30" shape="594.36,366.54 594.75,363.49 596.50,357.85 599.41,351.13"/>
    </edge>
    <edge id=":37_4" function="internal">
        <lane id=":37_4_0" index="0" speed="13.90" length="16.06" shape="605.36,353.98 602.93,359.41 601.37,363.76 600.69,367.01 600.87,369.17"/>
    </edge>
    <edge id=":37_5" function="internal">
        <lane id=":37_5_0" index="0" speed="13.90" length="26.85" shape="602.38,352.55 598.39,359.00 593.56,363.44 587.88,365.86 581.36,366.28"/>
    </edge>
    <edge id=":37_6" function="internal">
        <lane id=":37_6_0" index="0" speed="13.90" length="12.57" shape="602.38,352.55 598.31,358.94 594.27,361.05 593.89,360.84"/>
    </edge>
    <edge id=":37_15" function="internal">
        <lane id=":37_15_0" index="0" speed="13.90" length="11.69" shape="593.89,360.84 590.26,358.89 586.27,352.45"/>
    </edge>
    <edge id=":37_7" function="internal">
        <lane id=":37_7_0" index="0" speed="13.90" length="6.28" shape="592.26,349.68 593.29,351.34 594.33,351.90 595.38,351.35 596.43,349.70"/>
    </edge>
    <edge id=":37_8" function="internal">
        <lane id=":37_8_0" index="0" speed="13.90" length="21.21" shape="592.26,349.68 600.87,369.17"/>
        <lane id=":37_8_1" index="1" speed="13.90" length="21.21" shape="589.26,351.07 597.79,370.36"/>
    </edge>
    <edge id=":37_10" function="internal">
        <lane id=":37_10_0" index="0" speed="13.90" length="9.52" shape="589.26,351.07 591.65,358.22 591.44,360.18"/>
    </edge>
    <edge id=":37_16" function="internal">
        <lane id=":37_16_0" index="0" speed="13.90" length="13.68" shape="591.44,360.18 591.12,363.14 587.70,365.83 581.36,366.28"/>
    </edge>
    <edge id=":37_11" function="internal">
        <lane id=":37_11_0" index="0" speed="13.90" length="7.76" shape="581.92,359.70 583.60,359.47 584.38,358.42 584.27,356.54 583.28,353.84"/>
    </edge>
    <edge id=":37_12" function="internal">
        <lane id=":37_12_0" index="0" speed="13.90" length="22.84" shape="581.64,362.99 587.10,362.62 591.89,360.52 595.99,356.69 599.41,351.13"/>
    </edge>
    <edge id=":37_13" function="internal">
        <lane id=":37_13_0" index="0" speed="13.90" length="6.61" shape="581.64,362.99 587.81,363.89 588.16,364.00"/>
    </edge>
    <edge id=":37_17" function="internal">
        <lane id=":37_17_0" index="0" speed="13.90" length="11.96" shape="588.16,364.00 592.57,365.42 595.89,367.57 597.79,370.36"/>
    </edge>
    <edge id=":6_0" function="internal">
        <lane id=":6_0_0" index="0" speed="13.90" length="11.40" shape="592.26,935.80 589.24,934.05 587.08,931.73 585.75,928.85 585.27,925.40"/>
        <lane id=":6_0_1" index="1" speed="13.90" length="11.40" shape="593.55,932.76 591.40,931.51 589.86,929.86 588.91,927.81 588.57,925.35"/>
    </edge>
    <edge id=":6_2" function="internal">
        <lane id=":6_2_0" index="0" speed="13.90" length="3.76" shape="595.17,925.24 595.24,925.72 595.42,926.12 595.72,926.45 596.14,926.69"/>
        <lane id=":6_2_1" index="1" speed="13.90" length="3.76" shape="591.87,925.30 592.07,926.77 592.64,927.99 593.56,928.98 594.85,929.73"/>
    </edge>
    <edge id=":63_0" function="internal">
        <lane id=":63_0_0" index="0" speed="13.90" length="13.33" shape="822.92,532.61 818.84,529.43 815.61,527.21 813.24,525.94 811.72,525.62"/>
    </edge>
    <edge id=":63_1" function="internal">
        <lane id=":63_1_0" index="0" speed="13.90" length="22.47" shape="825.00,530.05 820.27,525.09 819.20,520.84 821.78,517.29 828.02,514.46"/>
    </edge>
    <edge id=":63_2" function="internal">
        <lane id=":63_2_0" index="0" speed="13.90" length="5.99" shape="829.96,520.77 828.30,521.52 827.61,522.47 827.89,523.60 829.15,524.93"/>
    </edge>
    <edge id=":63_3" function="internal">
        <lane id=":63_3_0" index="0" speed="13.90" length="18.66" shape="829.96,520.77 824.62,522.50 820.96,523.72 817.24,524.67 811.72,525.62"/>
        <lane id=":63_3_1" index="1" speed="13.90" length="18.66" shape="828.99,517.61 823.79,519.31 820.23,520.50 816.62,521.43 811.24,522.36"/>
    </edge>
    <edge id=":63_5" function="internal">
        <lane id=":63_5_0" index="0" speed="13.90" length="17.65" shape="810.29,515.82 815.36,514.95 818.78,514.05 822.14,512.91 827.05,511.31"/>
        <lane id=":63_5_1" index="1" speed="13.90" length="17.65" shape="810.77,519.09 815.99,518.19 819.51,517.27 822.97,516.11 828.02,514.46"/>
    </edge>
    <edge id=":63_7" function="internal">
        <lane id=":63_7_0" index="0" speed="13.90" length="4.76" shape="810.77,519.09 813.68,519.34 815.38,520.02"/>
    </edge>
    <edge id=":63_8" function="internal">
        <lane id=":63_8_0" index="0" speed="13.90" length="13.94" shape="815.38,520.02 817.37,520.82 821.83,523.54 827.07,527.49"/>
    </edge>
    <edge id=":68_0" function="internal">
        <lane id=":68_0_0" index="0" speed="13.90" length="13.05" shape="244.90,370.76 241.25,370.73 238.66,370.61 236.24,371.03 233.09,372.60"/>
        <lane id=":68_0_1" index="1" speed="13.90" length="13.05" shape="244.74,367.47 240.60,367.46 237.67,367.41 234.93,367.97 231.35,369.80"/>
    </edge>
    <edge id=":68_2" function="internal">
        <lane id=":68_2_0" index="0" speed="13.90" length="7.65" shape="244.74,367.47 239.22,366.95 237.45,365.81"/>
    </edge>
    <edge id=":68_9" function="internal">
        <lane id=":68_9_0" index="0" speed="13.90" length="11.48" shape="237.45,365.81 235.84,364.77 234.59,360.95 235.48,355.48"/>
    </edge>
    <edge id=":68_3" function="internal">
        <lane id=":68_3_0" index="0" speed="13.90" length="5.48" shape="241.79,357.44 241.53,359.01 241.89,360.10 242.86,360.73 244.44,360.87"/>
    </edge>
    <edge id=":68_4" function="internal">
        <lane id=":68_4_0" index="0" speed="13.90" length="17.00" shape="241.79,357.44 240.38,362.68 239.25,366.43 237.22,369.47 233.09,372.60"/>
        <lane id=":68_4_1" index="1" speed="13.90" length="17.00" shape="238.63,356.46 237.45,361.04 236.57,364.35 234.90,367.05 231.35,369.80"/>
    </edge>
    <edge id=":68_6" function="internal">
        <lane id=":68_6_0" index="0" speed="13.90" length="11.13" shape="227.88,364.18 230.27,362.20 231.21,360.20 231.61,357.77 232.33,354.50"/>
    </edge>
    <edge id=":68_7" function="internal">
        <lane id=":68_7_0" index="0" speed="13.90" length="16.40" shape="227.88,364.18 232.31,361.85 235.69,361.01 239.30,360.93 244.44,360.87"/>