<additional xmlns:xsi="http://www.w3.org/2001/XMLSchema-instance" xsi:noNamespaceSchemaLocation="http://sumo.dlr.de/xsd/additional_file.xsd">
    <laneAreaDetector file="e2_Static.output.xml" freq="60" friendlyPos="x" id="1_e2det_-11_0" lane="-11_0" length="60" pos="98.95000000000002"/>
    <laneAreaDetector file="e2_Static.output.xml" freq="60" friendlyPos="x" id="1_e2det_-3_0" lane="-3_0" length="60" pos="157.27"/>
    <laneAreaDetector file="e2_Static.output.xml" freq="60" friendlyPos="x" id="1_e2det_-3_1" lane="-3_1" length="60" pos="157.27"/>
    <laneAreaDetector file="e2_Static.output.xml" freq="60" friendlyPos="x" id="1_e2det_-7_0" lane="-7_0" length="60" pos="132.54"/>
    <laneAreaDetector file="e2_Static.output.xml" freq="60" friendlyPos="x" id="1_e2det_-7_1" lane="-7_1" length="60" pos="132.54"/>
    <laneAreaDetector file="e2_Static.output.xml" freq="60" friendlyPos="x" id="1_e2det_-9_0" lane="-9_0" length="60" pos="132.54"/>
    <laneAreaDetector file="e2_Static.output.xml" freq="60" friendlyPos="x" id="1_e2det_-9_1" lane="-9_1" length="60" pos="132.54"/>
    <laneAreaDetector file="e2_Static.output.xml" freq="60" friendlyPos="x" id="2_e2det_-13_0" lane="-13_0" length="60" pos="56.29"/>
    <laneAreaDetector file="e2_Static.output.xml" freq="60" friendlyPos="x" id="2_e2det_3_0" lane="3_0" length="60" pos="157.27"/>
    <laneAreaDetector file="e2_Static.output.xml" freq="60" friendlyPos="x" id="8_e2det_-15_0" lane="-15_0" length="60" pos="151.04"/>
    <laneAreaDetector file="e2_Static.output.xml" freq="60" friendlyPos="x" id="8_e2det_-19_0" lane="-19_0" length="60" pos="122.22"/>
    <laneAreaDetector file="e2_Static.output.xml" freq="60" friendlyPos="x" id="8_e2det_-25_0" lane="-25_0" length="60" pos="140.29"/>
    <laneAreaDetector file="e2_Static.output.xml" freq="60" friendlyPos="x" id="8_e2det_-63_0" lane="-63_0" length="60" pos="89.82"/>
    <laneAreaDetector file="e2_Static.output.xml" freq="60" friendlyPos="x" id="8_e2det_9_0" lane="9_0" length="60" pos="132.54"/>
    <laneAreaDetector file="e2_Static.output.xml" freq="60" friendlyPos="x" id="8_e2det_9_1" lane="9_1" length="60" pos="132.54"/>
    <laneAreaDetector file="e2_Static.output.xml" freq="60" friendlyPos="x" id="18_e2det_-173_0" lane="-173_0" length="60" pos="169.55"/>
    <laneAreaDetector file="e2_Static.output.xml" freq="60" friendlyPos="x" id="18_e2det_-175_0" lane="-175_0" length="60" pos="133.8"/>
    <laneAreaDetector file="e2_Static.output.xml" freq="60" friendlyPos="x" id="18_e2det_-175_1" lane="-175_1" length="60" pos="133.8"/>
    <laneAreaDetector file="e2_Static.output.xml" freq="60" friendlyPos="x" id="18_e2det_-179_0" lane="-179_0" length="60" pos="59.54"/>
    <laneAreaDetector file="e2_Static.output.xml" freq="60" friendlyPos="x" id="18_e2det_-179_1" lane="-179_1" length="60" pos="59.54"/>
    <laneAreaDetector file="e2_Static.output.xml" freq="60" friendlyPos="x" id="18_e2det_-203_0" lane="-203_0" length="60" pos="63.809999999999995"/>
    <laneAreaDetector file="e2_Static.output.xml" freq="60" friendlyPos="x" id="18_e2det_-203_1" lane="-203_1" length="60" pos="63.809999999999995"/>
    <laneAreaDetector file="e2_Static.output.xml" freq="60" friendlyPos="x" id="18_e2det_19_0" lane="19_0" length="60" pos="122.22"/>
    <laneAreaDetector file="e2_Static.output.xml" freq="60" friendlyPos="x" id="62_e2det_-306_0" lane="-306_0" length="60" pos="57.059999999999995"/>
    <laneAreaDetector file="e2_Static.output.xml" freq="60" friendlyPos="x" id="62_e2det_63_0" lane="63_0" length="60" pos="89.82"/>
    <laneAreaDetector file="e2_Static.output.xml" freq="60" friendlyPos="x" id="67_e2det_-309_0" lane="-309_0" length="60" pos="143.67000000000002"/>
    <laneAreaDetector file="e2_Static.output.xml" freq="60" friendlyPos="x" id="67_e2det_173_0" lane="173_0" length="60" pos="169.55"/>
    <laneAreaDetector file="e2_Static.output.xml" freq="60" friendlyPos="x" id="67_e2det_68_0" lane="68_0" length="60" pos="115.74000000000001"/>
    <laneAreaDetector file="e2_Static.output.xml" freq="60" friendlyPos="x" id="69_e2det_-311_0" lane="-311_0" length="60" pos="43.73"/>
    <laneAreaDetector file="e2_Static.output.xml" freq="60" friendlyPos="x" id="69_e2det_-311_1" lane="-311_1" length="60" pos="43.73"/>
    <laneAreaDetector file="e2_Static.output.xml" freq="60" friendlyPos="x" id="69_e2det_309_0" lane="309_0" length="60" pos="143.67000000000002"/>
    <laneAreaDetector file="e2_Static.output.xml" freq="60" friendlyPos="x" id="69_e2det_70_0" lane="70_0" length="60" pos="84.22"/>
    <laneAreaDetector file="e2_Static.output.xml" freq="60" friendlyPos="x" id="69_e2det_70_1" lane="70_1" length="60" pos="84.22"/>
    <laneAreaDetector file="e2_Static.output.xml" freq="60" friendlyPos="x" id="178_e2det_-314_0" lane="-314_0" length="60" pos="70.13"/>
    <laneAreaDetector file="e2_Static.output.xml" freq="60" friendlyPos="x" id="178_e2det_-314_1" lane="-314_1" length="60" pos="70.13"/>
    <laneAreaDetector file="e2_Static.output.xml" freq="60" friendlyPos="x" id="178_e2det_-315_0" lane="-315_0" length="60" pos="126.51000000000002"/>
    <laneAreaDetector file="e2_Static.output.xml" freq="60" friendlyPos="x" id="178_e2det_-315_1" lane="-315_1" length="60" pos="126.51000000000002"/>
    <laneAreaDetector file="e2_Static.output.xml" freq="60" friendlyPos="x" id="178_e2det_179_0" lane="179_0" length="60" pos="59.54"/>
    <laneAreaDetector file="e2_Static.output.xml" freq="60" friendlyPos="x" id="178_e2det_179_1" lane="179_1" length="60" pos="59.54"/>
    <laneAreaDetector file="e2_Static.output.xml" freq="60" friendlyPos="x" id="310_e2det_-321_0" lane="-321_0" length="60" pos="166.22"/>
    <laneAreaDetector file="e2_Static.output.xml" freq="60" friendlyPos="x" id="310_e2det_-327_0" lane="-327_0" length="60" pos="91.68"/>
    <laneAreaDetector file="e2_Static.output.xml" freq="60" friendlyPos="x" id="310_e2det_-327_1" lane="-327_1" length="60" pos="91.68"/>
    <laneAreaDetector file="e2_Static.output.xml" freq="60" friendlyPos="x" id="310_e2det_-343_0" lane="-343_0" length="60" pos="102.43"/>
    <laneAreaDetector file="e2_Static.output.xml" freq="60" friendlyPos="x" id="310_e2det_-393_0" lane="-393_0" length="60" pos="65.55000000000001"/>
    <laneAreaDetector file="e2_Static.output.xml" freq="60" friendlyPos="x" id="310_e2det_-393_1" lane="-393_1" length="60" pos="65.55000000000001"/>
    <laneAreaDetector file="e2_Static.output.xml" freq="60" friendlyPos="x" id="310_e2det_311_0" lane="311_0" length="60" pos="43.73"/>
    <laneAreaDetector file="e2_Static.output.xml" freq="60" friendlyPos="x" id="310_e2det_311_1" lane="311_1" length="60" pos="43.73"/>
    <laneAreaDetector file="e2_Static.output.xml" freq="60" friendlyPos="x" id="202_e2det_-397_0" lane="-397_0" length="60" pos="129.65"/>
    <laneAreaDetector file="e2_Static.output.xml" freq="60" friendlyPos="x" id="202_e2det_203_0" lane="203_0" length="60" pos="63.809999999999995"/>
    <laneAreaDetector file="e2_Static.output.xml" freq="60" friendlyPos="x" id="202_e2det_203_1" lane="203_1" length="60" pos="63.809999999999995"/>
    <laneAreaDetector file="e2_Static.output.xml" freq="60" friendlyPos="x" id="202_e2det_314_0" lane="314_0" length="60" pos="70.13"/>
    <laneAreaDetector file="e2_Static.output.xml" freq="60" friendlyPos="x" id="202_e2det_314_1" lane="314_1" length="60" pos="70.13"/>
    <laneAreaDetector file="e2_Static.output.xml" freq="60" friendlyPos="x" id="320_e2det_-403_0" lane="-403_0" length="60" pos="164.76000000000002"/>
    <laneAreaDetector file="e2_Static.output.xml" freq="60" friendlyPos="x" id="320_e2det_-403_1" lane="-403_1" length="60" pos="164.76000000000002"/>
    <laneAreaDetector file="e2_Static.output.xml" freq="60" friendlyPos="x" id="320_e2det_-405_0" lane="-405_0" length="60" pos="37.1"/>
    <laneAreaDetector file="e2_Static.output.xml" freq="60" friendlyPos="x" id="320_e2det_-409_0" lane="-409_0" length="60" pos="58.79"/>
    <laneAreaDetector file="e2_Static.output.xml" freq="60" friendlyPos="x" id="320_e2det_-417_0" lane="-417_0" length="60" pos="58.21999999999999"/>
    <laneAreaDetector file="e2_Static.output.xml" freq="60" friendlyPos="x" id="320_e2det_321_0" lane="321_0" length="60" pos="166.22"/>
    <laneAreaDetector file="e2_Static.output.xml" freq="60" friendlyPos="x" id="326_e2det_-423_0" lane="-423_0" length="60" pos="152.96"/>
    <laneAreaDetector file="e2_Static.output.xml" freq="60" friendlyPos="x" id="326_e2det_-429_0" lane="-429_0" length="60" pos="147.04"/>
    <laneAreaDetector file="e2_Static.output.xml" freq="60" friendlyPos="x" id="326_e2det_-429_1" lane="-429_1" length="60" pos="147.04"/>
    <laneAreaDetector file="e2_Static.output.xml" freq="60" friendlyPos="x" id="326_e2det_-435_0" lane="-435_0" length="60" pos="176.38"/>
    <laneAreaDetector file="e2_Static.output.xml" freq="60" friendlyPos="x" id="326_e2det_-435_1" lane="-435_1" length="60" pos="176.38"/>
    <laneAreaDetector file="e2_Static.output.xml" freq="60" friendlyPos="x" id="326_e2det_-477_0" lane="-477_0" length="60" pos="51.18"/>
    <laneAreaDetector file="e2_Static.output.xml" freq="60" friendlyPos="x" id="326_e2det_-477_1" lane="-477_1" length="60" pos="51.18"/>
    <laneAreaDetector file="e2_Static.output.xml" freq="60" friendlyPos="x" id="326_e2det_327_0" lane="327_0" length="60" pos="91.68"/>
    <laneAreaDetector file="e2_Static.output.xml" freq="60" friendlyPos="x" id="326_e2det_327_1" lane="327_1" length="60" pos="91.68"/>
    <laneAreaDetector file="e2_Static.output.xml" freq="60" friendlyPos="x" id="12_e2det_-68_0" lane="-68_0" length="60" pos="115.74000000000001"/>
    <laneAreaDetector file="e2_Static.output.xml" freq="60" friendlyPos="x" id="12_e2det_-70_0" lane="-70_0" length="60" pos="84.22"/>
    <laneAreaDetector file="e2_Static.output.xml" freq="60" friendlyPos="x" id="12_e2det_-70_1" lane="-70_1" length="60" pos="84.22"/>
    <laneAreaDetector file="e2_Static.output.xml" freq="60" friendlyPos="x" id="12_e2det_13_0" lane="13_0" length="60" pos="56.29"/>
    <laneAreaDetector file="e2_Static.output.xml" freq="60" friendlyPos="x" id="12_e2det_15_0" lane="15_0" length="60" pos="151.04"/>
    <laneAreaDetector file="e2_Static.output.xml" freq="60" friendlyPos="x" id="396_e2det_-684_0" lane="-684_0" length="60" pos="96.95000000000002"/>
    <laneAreaDetector file="e2_Static.output.xml" freq="60" friendlyPos="x" id="396_e2det_-684_1" lane="-684_1" length="60" pos="96.95000000000002"/>
    <laneAreaDetector file="e2_Static.output.xml" freq="60" friendlyPos="x" id="396_e2det_-686_0" lane="-686_0" length="60" pos="74.16"/>
    <laneAreaDetector file="e2_Static.output.xml" freq="60" friendlyPos="x" id="396_e2det_-688_0" lane="-688_0" length="60" pos="114.86000000000001"/>
    <laneAreaDetector file="e2_Static.output.xml" freq="60" friendlyPos="x" id="396_e2det_-698_0" lane="-698_0" length="60" pos="173.71"/>
    <laneAreaDetector file="e2_Static.output.xml" freq="60" friendlyPos="x" id="396_e2det_-698_1" lane="-698_1" length="60" pos="173.71"/>
    <laneAreaDetector file="e2_Static.output.xml" freq="60" friendlyPos="x" id="396_e2det_-704_0" lane="-704_0" length="60" pos="114.24000000000001"/>
    <laneAreaDetector file="e2_Static.output.xml" freq="60" friendlyPos="x" id="396_e2det_397_0" lane="397_0" length="60" pos="129.65"/>
    <laneAreaDetector file="e2_Static.output.xml" freq="60" friendlyPos="x" id="10_e2det_-708_0" lane="-708_0" length="60" pos="99.16"/>
    <laneAreaDetector file="e2_Static.output.xml" freq="60" friendlyPos="x" id="10_e2det_11_0" lane="11_0" length="60" pos="98.95000000000002"/>
    <laneAreaDetector file="e2_Static.output.xml" freq="60" friendlyPos="x" id="402_e2det_-710_0" lane="-710_0" length="60" pos="61.01"/>
    <laneAreaDetector file="e2_Static.output.xml" freq="60" friendlyPos="x" id="402_e2det_-710_1" lane="-710_1" length="60" pos="61.01"/>
    <laneAreaDetector file="e2_Static.output.xml" freq="60" friendlyPos="x" id="402_e2det_-712_0" lane="-712_0" length="60" pos="135.25"/>
    <laneAreaDetector file="e2_Static.output.xml" freq="60" friendlyPos="x" id="402_e2det_-716_0" lane="-716_0" length="60" pos="120.33000000000001"/>
    <laneAreaDetector file="e2_Static.output.xml" freq="60" friendlyPos="x" id="402_e2det_-734_0" lane="-734_0" length="60" pos="117.64000000000001"/>
    <laneAreaDetector file="e2_Static.output.xml" freq="60" friendlyPos="x" id="402_e2det_403_0" lane="403_0" length="60" pos="164.76000000000002"/>
    <laneAreaDetector file="e2_Static.output.xml" freq="60" friendlyPos="x" id="402_e2det_403_1" lane="403_1" length="60" pos="164.76000000000002"/>
    <laneAreaDetector file="e2_Static.output.xml" freq="60" friendlyPos="x" id="408_e2det_-844_0" lane="-844_0" length="60" pos="130.61"/>
    <laneAreaDetector file="e2_Static.output.xml" freq="60" friendlyPos="x" id="408_e2det_-844_1" lane="-844_1" length="60" pos="130.61"/>
    <laneAreaDetector file="e2_Static.output.xml" freq="60" friendlyPos="x" id="408_e2det_-852_0" lane="-852_0" length="60" pos="87.65"/>
    <laneAreaDetector file="e2_Static.output.xml" freq="60" friendlyPos="x" id="408_e2det_-900_0" lane="-900_0" length="60" pos="160.98000000000002"/>
    <laneAreaDetector file="e2_Static.output.xml" freq="60" friendlyPos="x" id="408_e2det_409_0" lane="409_0" length="60" pos="58.79"/>
    <laneAreaDetector file="e2_Static.output.xml" freq="60" friendlyPos="x" id="416_e2det_-904_0" lane="-904_0" length="60" pos="141.73000000000002"/>
    <laneAreaDetector file="e2_Static.output.xml" freq="60" friendlyPos="x" id="416_e2det_417_0" lane="417_0" length="60" pos="58.21999999999999"/>
    <laneAreaDetector file="e2_Static.output.xml" freq="60" friendlyPos="x" id="24_e2det_25_0" lane="25_0" length="60" pos="140.29"/>
    <laneAreaDetector file="e2_Static.output.xml" freq="60" friendlyPos="x" id="24_e2det_315_0" lane="315_0" length="60" pos="126.51000000000002"/>
    <laneAreaDetector file="e2_Static.output.xml" freq="60" friendlyPos="x" id="6_e2det_306_0" lane="306_0" length="60" pos="57.059999999999995"/>
    <laneAreaDetector file="e2_Static.output.xml" freq="60" friendlyPos="x" id="6_e2det_7_0" lane="7_0" length="60" pos="132.54"/>
    <laneAreaDetector file="e2_Static.output.xml" freq="60" friendlyPos="x" id="422_e2det_423_0" lane="423_0" length="60" pos="152.96"/>
    <laneAreaDetector file="e2_Static.output.xml" freq="60" friendlyPos="x" id="422_e2det_708_0" lane="708_0" length="60" pos="99.16"/>
    <laneAreaDetector file="e2_Static.output.xml" freq="60" friendlyPos="x" id="428_e2det_429_0" lane="429_0" length="60" pos="147.04"/>
    <laneAreaDetector file="e2_Static.output.xml" freq="60" friendlyPos="x" id="428_e2det_429_1" lane="429_1" length="60" pos="147.04"/>
    <laneAreaDetector file="e2_Static.output.xml" freq="60" friendlyPos="x" id="428_e2det_710_0" lane="710_0" length="60" pos="61.01"/>
    <laneAreaDetector file="e2_Static.output.xml" freq="60" friendlyPos="x" id="428_e2det_710_1" lane="710_1" length="60" pos="61.01"/>
</additional>
