<additional xmlns:xsi="http://www.w3.org/2001/XMLSchema-instance" xsi:noNamespaceSchemaLocation="http://sumo.dlr.de/xsd/additional_file.xsd">
    <laneAreaDetector file="e2_Static.output.xml" freq="60" friendlyPos="x" id="8_e2det_-103_0" lane="-103_0" length="60" pos="57.839999999999996"/>
    <laneAreaDetector file="e2_Static.output.xml" freq="60" friendlyPos="x" id="8_e2det_-103_1" lane="-103_1" length="60" pos="57.839999999999996"/>
    <laneAreaDetector file="e2_Static.output.xml" freq="60" friendlyPos="x" id="8_e2det_-103_2" lane="-103_2" length="60" pos="57.839999999999996"/>
    <laneAreaDetector file="e2_Static.output.xml" freq="60" friendlyPos="x" id="8_e2det_-17_0" lane="-17_0" length="60" pos="153.32"/>
    <laneAreaDetector file="e2_Static.output.xml" freq="60" friendlyPos="x" id="8_e2det_-17_1" lane="-17_1" length="60" pos="153.32"/>
    <laneAreaDetector file="e2_Static.output.xml" freq="60" friendlyPos="x" id="8_e2det_-19_0" lane="-19_0" length="60" pos="92.20000000000002"/>
    <laneAreaDetector file="e2_Static.output.xml" freq="60" friendlyPos="x" id="8_e2det_-19_1" lane="-19_1" length="60" pos="92.20000000000002"/>
    <laneAreaDetector file="e2_Static.output.xml" freq="60" friendlyPos="x" id="8_e2det_-25_0" lane="-25_0" length="60" pos="142.19"/>
    <laneAreaDetector file="e2_Static.output.xml" freq="60" friendlyPos="x" id="8_e2det_-63_0" lane="-63_0" length="60" pos="88.17000000000002"/>
    <laneAreaDetector file="e2_Static.output.xml" freq="60" friendlyPos="x" id="8_e2det_-63_1" lane="-63_1" length="60" pos="88.17000000000002"/>
    <laneAreaDetector file="e2_Static.output.xml" freq="60" friendlyPos="x" id="8_e2det_-63_2" lane="-63_2" length="60" pos="88.17000000000002"/>
    <laneAreaDetector file="e2_Static.output.xml" freq="60" friendlyPos="x" id="8_e2det_9_0" lane="9_0" length="60" pos="121.25"/>
    <laneAreaDetector file="e2_Static.output.xml" freq="60" friendlyPos="x" id="14_e2det_-107_0" lane="-107_0" length="60" pos="113.38"/>
    <laneAreaDetector file="e2_Static.output.xml" freq="60" friendlyPos="x" id="14_e2det_-115_0" lane="-115_0" length="60" pos="156.98000000000002"/>
    <laneAreaDetector file="e2_Static.output.xml" freq="60" friendlyPos="x" id="14_e2det_-115_1" lane="-115_1" length="60" pos="156.98000000000002"/>
    <laneAreaDetector file="e2_Static.output.xml" freq="60" friendlyPos="x" id="14_e2det_-115_2" lane="-115_2" length="60" pos="156.98000000000002"/>
    <laneAreaDetector file="e2_Static.output.xml" freq="60" friendlyPos="x" id="14_e2det_15_0" lane="15_0" length="60" pos="88.11000000000001"/>
    <laneAreaDetector file="e2_Static.output.xml" freq="60" friendlyPos="x" id="14_e2det_15_1" lane="15_1" length="60" pos="88.11000000000001"/>
    <laneAreaDetector file="e2_Static.output.xml" freq="60" friendlyPos="x" id="14_e2det_15_2" lane="15_2" length="60" pos="88.11000000000001"/>
    <laneAreaDetector file="e2_Static.output.xml" freq="60" friendlyPos="x" id="1_e2det_-11_0" lane="-11_0" length="60" pos="95.71000000000001"/>
    <laneAreaDetector file="e2_Static.output.xml" freq="60" friendlyPos="x" id="1_e2det_-3_0" lane="-3_0" length="60" pos="155.24"/>
    <laneAreaDetector file="e2_Static.output.xml" freq="60" friendlyPos="x" id="1_e2det_-3_1" lane="-3_1" length="60" pos="155.24"/>
    <laneAreaDetector file="e2_Static.output.xml" freq="60" friendlyPos="x" id="1_e2det_-3_3" lane="-3_3" length="60" pos="155.24"/>
    <laneAreaDetector file="e2_Static.output.xml" freq="60" friendlyPos="x" id="1_e2det_-7_0" lane="-7_0" length="60" pos="121.88"/>
    <laneAreaDetector file="e2_Static.output.xml" freq="60" friendlyPos="x" id="1_e2det_-7_1" lane="-7_1" length="60" pos="121.88"/>
    <laneAreaDetector file="e2_Static.output.xml" freq="60" friendlyPos="x" id="1_e2det_-9_0" lane="-9_0" length="60" pos="121.25"/>
    <laneAreaDetector file="e2_Static.output.xml" freq="60" friendlyPos="x" id="6_e2det_-116_0" lane="-116_0" length="60" pos="48.96999999999999"/>
    <laneAreaDetector file="e2_Static.output.xml" freq="60" friendlyPos="x" id="6_e2det_-116_1" lane="-116_1" length="60" pos="48.96999999999999"/>
    <laneAreaDetector file="e2_Static.output.xml" freq="60" friendlyPos="x" id="6_e2det_7_0" lane="7_0" length="60" pos="121.88"/>
    <laneAreaDetector file="e2_Static.output.xml" freq="60" friendlyPos="x" id="6_e2det_7_1" lane="7_1" length="60" pos="121.88"/>
    <laneAreaDetector file="e2_Static.output.xml" freq="60" friendlyPos="x" id="18_e2det_-118_0" lane="-118_0" length="60" pos="59.35999999999999"/>
    <laneAreaDetector file="e2_Static.output.xml" freq="60" friendlyPos="x" id="18_e2det_-118_1" lane="-118_1" length="60" pos="59.35999999999999"/>
    <laneAreaDetector file="e2_Static.output.xml" freq="60" friendlyPos="x" id="18_e2det_-118_2" lane="-118_2" length="60" pos="59.35999999999999"/>
    <laneAreaDetector file="e2_Static.output.xml" freq="60" friendlyPos="x" id="18_e2det_-118_3" lane="-118_3" length="60" pos="59.35999999999999"/>
    <laneAreaDetector file="e2_Static.output.xml" freq="60" friendlyPos="x" id="18_e2det_-124_0" lane="-124_0" length="60" pos="140.54"/>
    <laneAreaDetector file="e2_Static.output.xml" freq="60" friendlyPos="x" id="18_e2det_-126_0" lane="-126_0" length="60" pos="41.51"/>
    <laneAreaDetector file="e2_Static.output.xml" freq="60" friendlyPos="x" id="18_e2det_-126_1" lane="-126_1" length="60" pos="41.51"/>
    <laneAreaDetector file="e2_Static.output.xml" freq="60" friendlyPos="x" id="18_e2det_-126_2" lane="-126_2" length="60" pos="41.51"/>
    <laneAreaDetector file="e2_Static.output.xml" freq="60" friendlyPos="x" id="18_e2det_-126_3" lane="-126_3" length="60" pos="41.51"/>
    <laneAreaDetector file="e2_Static.output.xml" freq="60" friendlyPos="x" id="18_e2det_-144_0" lane="-144_0" length="60" pos="91.07"/>
    <laneAreaDetector file="e2_Static.output.xml" freq="60" friendlyPos="x" id="18_e2det_-144_1" lane="-144_1" length="60" pos="91.07"/>
    <laneAreaDetector file="e2_Static.output.xml" freq="60" friendlyPos="x" id="18_e2det_-144_2" lane="-144_2" length="60" pos="91.07"/>
    <laneAreaDetector file="e2_Static.output.xml" freq="60" friendlyPos="x" id="18_e2det_-144_3" lane="-144_3" length="60" pos="91.07"/>
    <laneAreaDetector file="e2_Static.output.xml" freq="60" friendlyPos="x" id="18_e2det_19_0" lane="19_0" length="60" pos="92.20000000000002"/>
    <laneAreaDetector file="e2_Static.output.xml" freq="60" friendlyPos="x" id="18_e2det_19_1" lane="19_1" length="60" pos="92.20000000000002"/>
    <laneAreaDetector file="e2_Static.output.xml" freq="60" friendlyPos="x" id="2_e2det_-13_0" lane="-13_0" length="60" pos="51.660000000000004"/>
    <laneAreaDetector file="e2_Static.output.xml" freq="60" friendlyPos="x" id="2_e2det_-15_0" lane="-15_0" length="60" pos="88.11000000000001"/>
    <laneAreaDetector file="e2_Static.output.xml" freq="60" friendlyPos="x" id="2_e2det_-15_1" lane="-15_1" length="60" pos="88.11000000000001"/>
    <laneAreaDetector file="e2_Static.output.xml" freq="60" friendlyPos="x" id="2_e2det_-15_2" lane="-15_2" length="60" pos="88.11000000000001"/>
    <laneAreaDetector file="e2_Static.output.xml" freq="60" friendlyPos="x" id="2_e2det_3_0" lane="3_0" length="60" pos="155.24"/>
    <laneAreaDetector file="e2_Static.output.xml" freq="60" friendlyPos="x" id="2_e2det_3_1" lane="3_1" length="60" pos="155.24"/>
    <laneAreaDetector file="e2_Static.output.xml" freq="60" friendlyPos="x" id="2_e2det_3_2" lane="3_2" length="60" pos="155.24"/>
    <laneAreaDetector file="e2_Static.output.xml" freq="60" friendlyPos="x" id="2_e2det_3_3" lane="3_3" length="60" pos="155.24"/>
    <laneAreaDetector file="e2_Static.output.xml" freq="60" friendlyPos="x" id="106_e2det_-252_0" lane="-252_0" length="60" pos="127.6"/>
    <laneAreaDetector file="e2_Static.output.xml" freq="60" friendlyPos="x" id="106_e2det_107_0" lane="107_0" length="60" pos="113.38"/>
    <laneAreaDetector file="e2_Static.output.xml" freq="60" friendlyPos="x" id="114_e2det_-254_0" lane="-254_0" length="60" pos="141.64000000000001"/>
    <laneAreaDetector file="e2_Static.output.xml" freq="60" friendlyPos="x" id="114_e2det_-254_1" lane="-254_1" length="60" pos="141.64000000000001"/>
    <laneAreaDetector file="e2_Static.output.xml" freq="60" friendlyPos="x" id="114_e2det_-254_2" lane="-254_2" length="60" pos="141.64000000000001"/>
    <laneAreaDetector file="e2_Static.output.xml" freq="60" friendlyPos="x" id="114_e2det_-254_3" lane="-254_3" length="60" pos="141.64000000000001"/>
    <laneAreaDetector file="e2_Static.output.xml" freq="60" friendlyPos="x" id="114_e2det_-256_0" lane="-256_0" length="60" pos="46.15"/>
    <laneAreaDetector file="e2_Static.output.xml" freq="60" friendlyPos="x" id="114_e2det_-256_1" lane="-256_1" length="60" pos="46.15"/>
    <laneAreaDetector file="e2_Static.output.xml" freq="60" friendlyPos="x" id="114_e2det_-258_0" lane="-258_0" length="60" pos="164.45000000000002"/>
    <laneAreaDetector file="e2_Static.output.xml" freq="60" friendlyPos="x" id="114_e2det_115_0" lane="115_0" length="60" pos="156.98000000000002"/>
    <laneAreaDetector file="e2_Static.output.xml" freq="60" friendlyPos="x" id="114_e2det_115_1" lane="115_1" length="60" pos="156.98000000000002"/>
    <laneAreaDetector file="e2_Static.output.xml" freq="60" friendlyPos="x" id="114_e2det_115_2" lane="115_2" length="60" pos="156.98000000000002"/>
    <laneAreaDetector file="e2_Static.output.xml" freq="60" friendlyPos="x" id="102_e2det_103_0" lane="103_0" length="60" pos="57.839999999999996"/>
    <laneAreaDetector file="e2_Static.output.xml" freq="60" friendlyPos="x" id="102_e2det_103_1" lane="103_1" length="60" pos="57.839999999999996"/>
    <laneAreaDetector file="e2_Static.output.xml" freq="60" friendlyPos="x" id="102_e2det_103_2" lane="103_2" length="60" pos="57.839999999999996"/>
    <laneAreaDetector file="e2_Static.output.xml" freq="60" friendlyPos="x" id="102_e2det_118_0" lane="118_0" length="60" pos="59.35999999999999"/>
    <laneAreaDetector file="e2_Static.output.xml" freq="60" friendlyPos="x" id="102_e2det_118_1" lane="118_1" length="60" pos="59.35999999999999"/>
    <laneAreaDetector file="e2_Static.output.xml" freq="60" friendlyPos="x" id="102_e2det_118_2" lane="118_2" length="60" pos="59.35999999999999"/>
    <laneAreaDetector file="e2_Static.output.xml" freq="60" friendlyPos="x" id="62_e2det_116_0" lane="116_0" length="60" pos="48.96999999999999"/>
    <laneAreaDetector file="e2_Static.output.xml" freq="60" friendlyPos="x" id="62_e2det_116_1" lane="116_1" length="60" pos="48.96999999999999"/>
    <laneAreaDetector file="e2_Static.output.xml" freq="60" friendlyPos="x" id="62_e2det_116_2" lane="116_2" length="60" pos="48.96999999999999"/>
    <laneAreaDetector file="e2_Static.output.xml" freq="60" friendlyPos="x" id="62_e2det_63_0" lane="63_0" length="60" pos="88.17000000000002"/>
    <laneAreaDetector file="e2_Static.output.xml" freq="60" friendlyPos="x" id="62_e2det_63_1" lane="63_1" length="60" pos="88.17000000000002"/>
    <laneAreaDetector file="e2_Static.output.xml" freq="60" friendlyPos="x" id="62_e2det_63_2" lane="63_2" length="60" pos="88.17000000000002"/>
    <laneAreaDetector file="e2_Static.output.xml" freq="60" friendlyPos="x" id="12_e2det_13_0" lane="13_0" length="60" pos="51.660000000000004"/>
    <laneAreaDetector file="e2_Static.output.xml" freq="60" friendlyPos="x" id="12_e2det_17_0" lane="17_0" length="60" pos="153.32"/>
</additional>
