<additional xmlns:xsi="http://www.w3.org/2001/XMLSchema-instance" xsi:noNamespaceSchemaLocation="http://sumo.dlr.de/xsd/additional_file.xsd">
    <laneAreaDetector file="e2_Static.output.xml" freq="60" friendlyPos="x" id="1_e2det_-11_0" lane="-11_0" length="60" pos="97.38"/>
    <laneAreaDetector file="e2_Static.output.xml" freq="60" friendlyPos="x" id="1_e2det_-3_0" lane="-3_0" length="60" pos="153.48000000000002"/>
    <laneAreaDetector file="e2_Static.output.xml" freq="60" friendlyPos="x" id="1_e2det_-7_0" lane="-7_0" length="60" pos="136.55"/>
    <laneAreaDetector file="e2_Static.output.xml" freq="60" friendlyPos="x" id="1_e2det_-7_1" lane="-7_1" length="60" pos="136.55"/>
    <laneAreaDetector file="e2_Static.output.xml" freq="60" friendlyPos="x" id="1_e2det_-7_2" lane="-7_2" length="60" pos="136.55"/>
    <laneAreaDetector file="e2_Static.output.xml" freq="60" friendlyPos="x" id="1_e2det_-9_0" lane="-9_0" length="60" pos="111.66"/>
    <laneAreaDetector file="e2_Static.output.xml" freq="60" friendlyPos="x" id="1_e2det_-9_1" lane="-9_1" length="60" pos="111.66"/>
    <laneAreaDetector file="e2_Static.output.xml" freq="60" friendlyPos="x" id="1_e2det_-9_3" lane="-9_3" length="60" pos="111.66"/>
    <laneAreaDetector file="e2_Static.output.xml" freq="60" friendlyPos="x" id="12_e2det_-116_0" lane="-116_0" length="60" pos="64.41000000000001"/>
    <laneAreaDetector file="e2_Static.output.xml" freq="60" friendlyPos="x" id="12_e2det_-116_1" lane="-116_1" length="60" pos="64.41000000000001"/>
    <laneAreaDetector file="e2_Static.output.xml" freq="60" friendlyPos="x" id="12_e2det_-116_2" lane="-116_2" length="60" pos="64.41000000000001"/>
    <laneAreaDetector file="e2_Static.output.xml" freq="60" friendlyPos="x" id="12_e2det_-116_3" lane="-116_3" length="60" pos="64.41000000000001"/>
    <laneAreaDetector file="e2_Static.output.xml" freq="60" friendlyPos="x" id="12_e2det_-38_0" lane="-38_0" length="60" pos="77.78"/>
    <laneAreaDetector file="e2_Static.output.xml" freq="60" friendlyPos="x" id="12_e2det_-38_1" lane="-38_1" length="60" pos="77.78"/>
    <laneAreaDetector file="e2_Static.output.xml" freq="60" friendlyPos="x" id="12_e2det_-38_2" lane="-38_2" length="60" pos="77.78"/>
    <laneAreaDetector file="e2_Static.output.xml" freq="60" friendlyPos="x" id="12_e2det_-38_3" lane="-38_3" length="60" pos="77.78"/>
    <laneAreaDetector file="e2_Static.output.xml" freq="60" friendlyPos="x" id="12_e2det_-64_0" lane="-64_0" length="60" pos="70.16"/>
    <laneAreaDetector file="e2_Static.output.xml" freq="60" friendlyPos="x" id="12_e2det_-64_1" lane="-64_1" length="60" pos="70.16"/>
    <laneAreaDetector file="e2_Static.output.xml" freq="60" friendlyPos="x" id="12_e2det_13_0" lane="13_0" length="60" pos="51.529999999999994"/>
    <laneAreaDetector file="e2_Static.output.xml" freq="60" friendlyPos="x" id="12_e2det_15_0" lane="15_0" length="60" pos="124.76000000000002"/>
    <laneAreaDetector file="e2_Static.output.xml" freq="60" friendlyPos="x" id="12_e2det_15_1" lane="15_1" length="60" pos="124.76000000000002"/>
    <laneAreaDetector file="e2_Static.output.xml" freq="60" friendlyPos="x" id="12_e2det_15_2" lane="15_2" length="60" pos="124.76000000000002"/>
    <laneAreaDetector file="e2_Static.output.xml" freq="60" friendlyPos="x" id="12_e2det_15_3" lane="15_3" length="60" pos="124.76000000000002"/>
    <laneAreaDetector file="e2_Static.output.xml" freq="60" friendlyPos="x" id="2_e2det_-13_0" lane="-13_0" length="60" pos="51.529999999999994"/>
    <laneAreaDetector file="e2_Static.output.xml" freq="60" friendlyPos="x" id="2_e2det_3_0" lane="3_0" length="60" pos="153.48000000000002"/>
    <laneAreaDetector file="e2_Static.output.xml" freq="60" friendlyPos="x" id="8_e2det_-15_0" lane="-15_0" length="60" pos="124.76000000000002"/>
    <laneAreaDetector file="e2_Static.output.xml" freq="60" friendlyPos="x" id="8_e2det_-15_1" lane="-15_1" length="60" pos="124.76000000000002"/>
    <laneAreaDetector file="e2_Static.output.xml" freq="60" friendlyPos="x" id="8_e2det_-15_2" lane="-15_2" length="60" pos="124.76000000000002"/>
    <laneAreaDetector file="e2_Static.output.xml" freq="60" friendlyPos="x" id="8_e2det_-15_3" lane="-15_3" length="60" pos="124.76000000000002"/>
    <laneAreaDetector file="e2_Static.output.xml" freq="60" friendlyPos="x" id="8_e2det_-19_0" lane="-19_0" length="60" pos="110.44"/>
    <laneAreaDetector file="e2_Static.output.xml" freq="60" friendlyPos="x" id="8_e2det_-25_0" lane="-25_0" length="60" pos="144.17000000000002"/>
    <laneAreaDetector file="e2_Static.output.xml" freq="60" friendlyPos="x" id="8_e2det_-25_1" lane="-25_1" length="60" pos="144.17000000000002"/>
    <laneAreaDetector file="e2_Static.output.xml" freq="60" friendlyPos="x" id="8_e2det_-25_2" lane="-25_2" length="60" pos="144.17000000000002"/>
    <laneAreaDetector file="e2_Static.output.xml" freq="60" friendlyPos="x" id="8_e2det_9_0" lane="9_0" length="60" pos="111.66"/>
    <laneAreaDetector file="e2_Static.output.xml" freq="60" friendlyPos="x" id="8_e2det_9_1" lane="9_1" length="60" pos="111.66"/>
    <laneAreaDetector file="e2_Static.output.xml" freq="60" friendlyPos="x" id="8_e2det_9_3" lane="9_3" length="60" pos="111.66"/>
    <laneAreaDetector file="e2_Static.output.xml" freq="60" friendlyPos="x" id="18_e2det_-220_0" lane="-220_0" length="60" pos="143.02"/>
    <laneAreaDetector file="e2_Static.output.xml" freq="60" friendlyPos="x" id="18_e2det_-220_1" lane="-220_1" length="60" pos="143.02"/>
    <laneAreaDetector file="e2_Static.output.xml" freq="60" friendlyPos="x" id="18_e2det_-220_2" lane="-220_2" length="60" pos="143.02"/>
    <laneAreaDetector file="e2_Static.output.xml" freq="60" friendlyPos="x" id="18_e2det_-222_0" lane="-222_0" length="60" pos="66.64"/>
    <laneAreaDetector file="e2_Static.output.xml" freq="60" friendlyPos="x" id="18_e2det_-222_1" lane="-222_1" length="60" pos="66.64"/>
    <laneAreaDetector file="e2_Static.output.xml" freq="60" friendlyPos="x" id="18_e2det_-224_0" lane="-224_0" length="60" pos="151.16"/>
    <laneAreaDetector file="e2_Static.output.xml" freq="60" friendlyPos="x" id="18_e2det_-224_1" lane="-224_1" length="60" pos="151.16"/>
    <laneAreaDetector file="e2_Static.output.xml" freq="60" friendlyPos="x" id="18_e2det_-224_2" lane="-224_2" length="60" pos="151.16"/>
    <laneAreaDetector file="e2_Static.output.xml" freq="60" friendlyPos="x" id="18_e2det_19_0" lane="19_0" length="60" pos="110.44"/>
    <laneAreaDetector file="e2_Static.output.xml" freq="60" friendlyPos="x" id="37_e2det_-328_0" lane="-328_0" length="60" pos="61.809999999999995"/>
    <laneAreaDetector file="e2_Static.output.xml" freq="60" friendlyPos="x" id="37_e2det_-328_1" lane="-328_1" length="60" pos="61.809999999999995"/>
    <laneAreaDetector file="e2_Static.output.xml" freq="60" friendlyPos="x" id="37_e2det_-328_2" lane="-328_2" length="60" pos="61.809999999999995"/>
    <laneAreaDetector file="e2_Static.output.xml" freq="60" friendlyPos="x" id="37_e2det_-328_3" lane="-328_3" length="60" pos="61.809999999999995"/>
    <laneAreaDetector file="e2_Static.output.xml" freq="60" friendlyPos="x" id="37_e2det_-332_0" lane="-332_0" length="60" pos="93.31"/>
    <laneAreaDetector file="e2_Static.output.xml" freq="60" friendlyPos="x" id="37_e2det_-332_1" lane="-332_1" length="60" pos="93.31"/>
    <laneAreaDetector file="e2_Static.output.xml" freq="60" friendlyPos="x" id="37_e2det_-332_2" lane="-332_2" length="60" pos="93.31"/>
    <laneAreaDetector file="e2_Static.output.xml" freq="60" friendlyPos="x" id="37_e2det_-332_3" lane="-332_3" length="60" pos="93.31"/>
    <laneAreaDetector file="e2_Static.output.xml" freq="60" friendlyPos="x" id="37_e2det_38_0" lane="38_0" length="60" pos="77.78"/>
    <laneAreaDetector file="e2_Static.output.xml" freq="60" friendlyPos="x" id="37_e2det_38_1" lane="38_1" length="60" pos="77.78"/>
    <laneAreaDetector file="e2_Static.output.xml" freq="60" friendlyPos="x" id="37_e2det_38_2" lane="38_2" length="60" pos="77.78"/>
    <laneAreaDetector file="e2_Static.output.xml" freq="60" friendlyPos="x" id="37_e2det_38_3" lane="38_3" length="60" pos="77.78"/>
    <laneAreaDetector file="e2_Static.output.xml" freq="60" friendlyPos="x" id="115_e2det_116_0" lane="116_0" length="60" pos="64.41000000000001"/>
    <laneAreaDetector file="e2_Static.output.xml" freq="60" friendlyPos="x" id="115_e2det_116_1" lane="116_1" length="60" pos="64.41000000000001"/>
    <laneAreaDetector file="e2_Static.output.xml" freq="60" friendlyPos="x" id="115_e2det_116_2" lane="116_2" length="60" pos="64.41000000000001"/>
    <laneAreaDetector file="e2_Static.output.xml" freq="60" friendlyPos="x" id="115_e2det_116_3" lane="116_3" length="60" pos="64.41000000000001"/>
    <laneAreaDetector file="e2_Static.output.xml" freq="60" friendlyPos="x" id="115_e2det_328_0" lane="328_0" length="60" pos="61.809999999999995"/>
    <laneAreaDetector file="e2_Static.output.xml" freq="60" friendlyPos="x" id="115_e2det_328_1" lane="328_1" length="60" pos="61.809999999999995"/>
    <laneAreaDetector file="e2_Static.output.xml" freq="60" friendlyPos="x" id="115_e2det_328_2" lane="328_2" length="60" pos="61.809999999999995"/>
    <laneAreaDetector file="e2_Static.output.xml" freq="60" friendlyPos="x" id="115_e2det_328_3" lane="328_3" length="60" pos="61.809999999999995"/>
</additional>
