<additional xmlns:xsi="http://www.w3.org/2001/XMLSchema-instance" xsi:noNamespaceSchemaLocation="http://sumo.dlr.de/xsd/additional_file.xsd">
    <laneAreaDetector file="e2.output.xml" freq="60" friendlyPos="x" id="68_e2det_-105_0" lane="-105_0" length="60" pos="74.57"/>
    <laneAreaDetector file="e2.output.xml" freq="60" friendlyPos="x" id="68_e2det_-105_1" lane="-105_1" length="60" pos="74.57"/>
    <laneAreaDetector file="e2.output.xml" freq="60" friendlyPos="x" id="68_e2det_-111_0" lane="-111_0" length="60" pos="156.57"/>
    <laneAreaDetector file="e2.output.xml" freq="60" friendlyPos="x" id="68_e2det_-111_1" lane="-111_1" length="60" pos="156.57"/>
    <laneAreaDetector file="e2.output.xml" freq="60" friendlyPos="x" id="68_e2det_69_0" lane="69_0" length="60" pos="161.82"/>
    <laneAreaDetector file="e2.output.xml" freq="60" friendlyPos="x" id="68_e2det_69_1" lane="69_1" length="60" pos="161.82"/>
    <laneAreaDetector file="e2.output.xml" freq="60" friendlyPos="x" id="1_e2det_-11_0" lane="-11_0" length="60" pos="99.58000000000001"/>
    <laneAreaDetector file="e2.output.xml" freq="60" friendlyPos="x" id="1_e2det_-11_1" lane="-11_1" length="60" pos="99.58000000000001"/>
    <laneAreaDetector file="e2.output.xml" freq="60" friendlyPos="x" id="1_e2det_-3_0" lane="-3_0" length="60" pos="151.78"/>
    <laneAreaDetector file="e2.output.xml" freq="60" friendlyPos="x" id="1_e2det_-3_1" lane="-3_1" length="60" pos="151.78"/>
    <laneAreaDetector file="e2.output.xml" freq="60" friendlyPos="x" id="1_e2det_-7_0" lane="-7_0" length="60" pos="136.89000000000001"/>
    <laneAreaDetector file="e2.output.xml" freq="60" friendlyPos="x" id="1_e2det_-7_1" lane="-7_1" length="60" pos="136.89000000000001"/>
    <laneAreaDetector file="e2.output.xml" freq="60" friendlyPos="x" id="1_e2det_-9_0" lane="-9_0" length="60" pos="128.09"/>
    <laneAreaDetector file="e2.output.xml" freq="60" friendlyPos="x" id="1_e2det_-9_1" lane="-9_1" length="60" pos="128.09"/>
    <laneAreaDetector file="e2.output.xml" freq="60" friendlyPos="x" id="76_e2det_-114_0" lane="-114_0" length="60" pos="58.300000000000004"/>
    <laneAreaDetector file="e2.output.xml" freq="60" friendlyPos="x" id="76_e2det_-114_1" lane="-114_1" length="60" pos="58.300000000000004"/>
    <laneAreaDetector file="e2.output.xml" freq="60" friendlyPos="x" id="76_e2det_-120_0" lane="-120_0" length="60" pos="66.15"/>
    <laneAreaDetector file="e2.output.xml" freq="60" friendlyPos="x" id="76_e2det_-120_1" lane="-120_1" length="60" pos="66.15"/>
    <laneAreaDetector file="e2.output.xml" freq="60" friendlyPos="x" id="76_e2det_77_0" lane="77_0" length="60" pos="125.38"/>
    <laneAreaDetector file="e2.output.xml" freq="60" friendlyPos="x" id="76_e2det_77_1" lane="77_1" length="60" pos="125.38"/>
    <laneAreaDetector file="e2.output.xml" freq="60" friendlyPos="x" id="78_e2det_-128_0" lane="-128_0" length="60" pos="145.46"/>
    <laneAreaDetector file="e2.output.xml" freq="60" friendlyPos="x" id="78_e2det_-128_1" lane="-128_1" length="60" pos="145.46"/>
    <laneAreaDetector file="e2.output.xml" freq="60" friendlyPos="x" id="78_e2det_79_0" lane="79_0" length="60" pos="113.92000000000002"/>
    <laneAreaDetector file="e2.output.xml" freq="60" friendlyPos="x" id="78_e2det_79_1" lane="79_1" length="60" pos="113.92000000000002"/>
    <laneAreaDetector file="e2.output.xml" freq="60" friendlyPos="x" id="78_e2det_99_0" lane="99_0" length="60" pos="125.74000000000001"/>
    <laneAreaDetector file="e2.output.xml" freq="60" friendlyPos="x" id="78_e2det_99_1" lane="99_1" length="60" pos="125.74000000000001"/>
    <laneAreaDetector file="e2.output.xml" freq="60" friendlyPos="x" id="2_e2det_-13_0" lane="-13_0" length="60" pos="48.98"/>
    <laneAreaDetector file="e2.output.xml" freq="60" friendlyPos="x" id="2_e2det_-13_1" lane="-13_1" length="60" pos="48.98"/>
    <laneAreaDetector file="e2.output.xml" freq="60" friendlyPos="x" id="2_e2det_-15_0" lane="-15_0" length="60" pos="71.45000000000002"/>
    <laneAreaDetector file="e2.output.xml" freq="60" friendlyPos="x" id="2_e2det_-15_1" lane="-15_1" length="60" pos="71.45000000000002"/>
    <laneAreaDetector file="e2.output.xml" freq="60" friendlyPos="x" id="2_e2det_3_0" lane="3_0" length="60" pos="151.78"/>
    <laneAreaDetector file="e2.output.xml" freq="60" friendlyPos="x" id="2_e2det_3_1" lane="3_1" length="60" pos="151.78"/>
    <laneAreaDetector file="e2.output.xml" freq="60" friendlyPos="x" id="82_e2det_-130_0" lane="-130_0" length="60" pos="111.57"/>
    <laneAreaDetector file="e2.output.xml" freq="60" friendlyPos="x" id="82_e2det_-130_1" lane="-130_1" length="60" pos="111.57"/>
    <laneAreaDetector file="e2.output.xml" freq="60" friendlyPos="x" id="82_e2det_114_0" lane="114_0" length="60" pos="58.300000000000004"/>
    <laneAreaDetector file="e2.output.xml" freq="60" friendlyPos="x" id="82_e2det_114_1" lane="114_1" length="60" pos="58.300000000000004"/>
    <laneAreaDetector file="e2.output.xml" freq="60" friendlyPos="x" id="82_e2det_83_0" lane="83_0" length="60" pos="45.68"/>
    <laneAreaDetector file="e2.output.xml" freq="60" friendlyPos="x" id="82_e2det_83_1" lane="83_1" length="60" pos="45.68"/>
    <laneAreaDetector file="e2.output.xml" freq="60" friendlyPos="x" id="90_e2det_-136_0" lane="-136_0" length="60" pos="55.49"/>
    <laneAreaDetector file="e2.output.xml" freq="60" friendlyPos="x" id="90_e2det_-136_1" lane="-136_1" length="60" pos="55.49"/>
    <laneAreaDetector file="e2.output.xml" freq="60" friendlyPos="x" id="90_e2det_-140_0" lane="-140_0" length="60" pos="145.51000000000002"/>
    <laneAreaDetector file="e2.output.xml" freq="60" friendlyPos="x" id="90_e2det_-140_1" lane="-140_1" length="60" pos="145.51000000000002"/>
    <laneAreaDetector file="e2.output.xml" freq="60" friendlyPos="x" id="90_e2det_112_0" lane="112_0" length="60" pos="78.17000000000002"/>
    <laneAreaDetector file="e2.output.xml" freq="60" friendlyPos="x" id="90_e2det_112_1" lane="112_1" length="60" pos="78.17000000000002"/>
    <laneAreaDetector file="e2.output.xml" freq="60" friendlyPos="x" id="90_e2det_91_0" lane="91_0" length="60" pos="124.36000000000001"/>
    <laneAreaDetector file="e2.output.xml" freq="60" friendlyPos="x" id="90_e2det_91_1" lane="91_1" length="60" pos="124.36000000000001"/>
    <laneAreaDetector file="e2.output.xml" freq="60" friendlyPos="x" id="93_e2det_-142_0" lane="-142_0" length="60" pos="69.95000000000002"/>
    <laneAreaDetector file="e2.output.xml" freq="60" friendlyPos="x" id="93_e2det_-142_1" lane="-142_1" length="60" pos="69.95000000000002"/>
    <laneAreaDetector file="e2.output.xml" freq="60" friendlyPos="x" id="93_e2det_-143_0" lane="-143_0" length="60" pos="161.27"/>
    <laneAreaDetector file="e2.output.xml" freq="60" friendlyPos="x" id="93_e2det_-143_1" lane="-143_1" length="60" pos="161.27"/>
    <laneAreaDetector file="e2.output.xml" freq="60" friendlyPos="x" id="93_e2det_-145_0" lane="-145_0" length="60" pos="128.46"/>
    <laneAreaDetector file="e2.output.xml" freq="60" friendlyPos="x" id="93_e2det_-145_1" lane="-145_1" length="60" pos="128.46"/>
    <laneAreaDetector file="e2.output.xml" freq="60" friendlyPos="x" id="93_e2det_94_0" lane="94_0" length="60" pos="71.84"/>
    <laneAreaDetector file="e2.output.xml" freq="60" friendlyPos="x" id="93_e2det_94_1" lane="94_1" length="60" pos="71.84"/>
    <laneAreaDetector file="e2.output.xml" freq="60" friendlyPos="x" id="97_e2det_-147_0" lane="-147_0" length="60" pos="96.37"/>
    <laneAreaDetector file="e2.output.xml" freq="60" friendlyPos="x" id="97_e2det_-147_1" lane="-147_1" length="60" pos="96.37"/>
    <laneAreaDetector file="e2.output.xml" freq="60" friendlyPos="x" id="97_e2det_-165_0" lane="-165_0" length="60" pos="142.17000000000002"/>
    <laneAreaDetector file="e2.output.xml" freq="60" friendlyPos="x" id="97_e2det_-165_1" lane="-165_1" length="60" pos="142.17000000000002"/>
    <laneAreaDetector file="e2.output.xml" freq="60" friendlyPos="x" id="97_e2det_142_0" lane="142_0" length="60" pos="69.95000000000002"/>
    <laneAreaDetector file="e2.output.xml" freq="60" friendlyPos="x" id="97_e2det_142_1" lane="142_1" length="60" pos="69.95000000000002"/>
    <laneAreaDetector file="e2.output.xml" freq="60" friendlyPos="x" id="97_e2det_98_0" lane="98_0" length="60" pos="105.59"/>
    <laneAreaDetector file="e2.output.xml" freq="60" friendlyPos="x" id="97_e2det_98_1" lane="98_1" length="60" pos="105.59"/>
    <laneAreaDetector file="e2.output.xml" freq="60" friendlyPos="x" id="104_e2det_-166_0" lane="-166_0" length="60" pos="145.62"/>
    <laneAreaDetector file="e2.output.xml" freq="60" friendlyPos="x" id="104_e2det_-166_1" lane="-166_1" length="60" pos="145.62"/>
    <laneAreaDetector file="e2.output.xml" freq="60" friendlyPos="x" id="104_e2det_105_0" lane="105_0" length="60" pos="74.57"/>
    <laneAreaDetector file="e2.output.xml" freq="60" friendlyPos="x" id="104_e2det_105_1" lane="105_1" length="60" pos="74.57"/>
    <laneAreaDetector file="e2.output.xml" freq="60" friendlyPos="x" id="104_e2det_143_0" lane="143_0" length="60" pos="161.27"/>
    <laneAreaDetector file="e2.output.xml" freq="60" friendlyPos="x" id="104_e2det_143_1" lane="143_1" length="60" pos="161.27"/>
    <laneAreaDetector file="e2.output.xml" freq="60" friendlyPos="x" id="8_e2det_-17_0" lane="-17_0" length="60" pos="140.98000000000002"/>
    <laneAreaDetector file="e2.output.xml" freq="60" friendlyPos="x" id="8_e2det_-17_1" lane="-17_1" length="60" pos="140.98000000000002"/>
    <laneAreaDetector file="e2.output.xml" freq="60" friendlyPos="x" id="8_e2det_-19_0" lane="-19_0" length="60" pos="112.89000000000001"/>
    <laneAreaDetector file="e2.output.xml" freq="60" friendlyPos="x" id="8_e2det_-19_1" lane="-19_1" length="60" pos="112.89000000000001"/>
    <laneAreaDetector file="e2.output.xml" freq="60" friendlyPos="x" id="8_e2det_-25_0" lane="-25_0" length="60" pos="135.89000000000001"/>
    <laneAreaDetector file="e2.output.xml" freq="60" friendlyPos="x" id="8_e2det_-25_1" lane="-25_1" length="60" pos="135.89000000000001"/>
    <laneAreaDetector file="e2.output.xml" freq="60" friendlyPos="x" id="8_e2det_9_0" lane="9_0" length="60" pos="128.09"/>
    <laneAreaDetector file="e2.output.xml" freq="60" friendlyPos="x" id="8_e2det_9_1" lane="9_1" length="60" pos="128.09"/>
    <laneAreaDetector file="e2.output.xml" freq="60" friendlyPos="x" id="110_e2det_-170_0" lane="-170_0" length="60" pos="110.47"/>
    <laneAreaDetector file="e2.output.xml" freq="60" friendlyPos="x" id="110_e2det_-170_1" lane="-170_1" length="60" pos="110.47"/>
    <laneAreaDetector file="e2.output.xml" freq="60" friendlyPos="x" id="110_e2det_-174_0" lane="-174_0" length="60" pos="82.67000000000002"/>
    <laneAreaDetector file="e2.output.xml" freq="60" friendlyPos="x" id="110_e2det_-174_1" lane="-174_1" length="60" pos="82.67000000000002"/>
    <laneAreaDetector file="e2.output.xml" freq="60" friendlyPos="x" id="110_e2det_111_0" lane="111_0" length="60" pos="156.57"/>
    <laneAreaDetector file="e2.output.xml" freq="60" friendlyPos="x" id="110_e2det_111_1" lane="111_1" length="60" pos="156.57"/>
    <laneAreaDetector file="e2.output.xml" freq="60" friendlyPos="x" id="12_e2det_-38_0" lane="-38_0" length="60" pos="107.27000000000001"/>
    <laneAreaDetector file="e2.output.xml" freq="60" friendlyPos="x" id="12_e2det_-38_1" lane="-38_1" length="60" pos="107.27000000000001"/>
    <laneAreaDetector file="e2.output.xml" freq="60" friendlyPos="x" id="12_e2det_-64_0" lane="-64_0" length="60" pos="77.84"/>
    <laneAreaDetector file="e2.output.xml" freq="60" friendlyPos="x" id="12_e2det_-64_1" lane="-64_1" length="60" pos="77.84"/>
    <laneAreaDetector file="e2.output.xml" freq="60" friendlyPos="x" id="12_e2det_13_0" lane="13_0" length="60" pos="48.98"/>
    <laneAreaDetector file="e2.output.xml" freq="60" friendlyPos="x" id="12_e2det_13_1" lane="13_1" length="60" pos="48.98"/>
    <laneAreaDetector file="e2.output.xml" freq="60" friendlyPos="x" id="12_e2det_17_0" lane="17_0" length="60" pos="140.98000000000002"/>
    <laneAreaDetector file="e2.output.xml" freq="60" friendlyPos="x" id="12_e2det_17_1" lane="17_1" length="60" pos="140.98000000000002"/>
    <laneAreaDetector file="e2.output.xml" freq="60" friendlyPos="x" id="14_e2det_-65_0" lane="-65_0" length="60" pos="36.9"/>
    <laneAreaDetector file="e2.output.xml" freq="60" friendlyPos="x" id="14_e2det_-65_1" lane="-65_1" length="60" pos="36.9"/>
    <laneAreaDetector file="e2.output.xml" freq="60" friendlyPos="x" id="14_e2det_-69_0" lane="-69_0" length="60" pos="161.82"/>
    <laneAreaDetector file="e2.output.xml" freq="60" friendlyPos="x" id="14_e2det_-69_1" lane="-69_1" length="60" pos="161.82"/>
    <laneAreaDetector file="e2.output.xml" freq="60" friendlyPos="x" id="14_e2det_15_0" lane="15_0" length="60" pos="71.45000000000002"/>
    <laneAreaDetector file="e2.output.xml" freq="60" friendlyPos="x" id="14_e2det_15_1" lane="15_1" length="60" pos="71.45000000000002"/>
    <laneAreaDetector file="e2.output.xml" freq="60" friendlyPos="x" id="18_e2det_-71_0" lane="-71_0" length="60" pos="124.86000000000001"/>
    <laneAreaDetector file="e2.output.xml" freq="60" friendlyPos="x" id="18_e2det_-71_1" lane="-71_1" length="60" pos="124.86000000000001"/>
    <laneAreaDetector file="e2.output.xml" freq="60" friendlyPos="x" id="18_e2det_-77_0" lane="-77_0" length="60" pos="125.38"/>
    <laneAreaDetector file="e2.output.xml" freq="60" friendlyPos="x" id="18_e2det_-77_1" lane="-77_1" length="60" pos="125.38"/>
    <laneAreaDetector file="e2.output.xml" freq="60" friendlyPos="x" id="18_e2det_-79_0" lane="-79_0" length="60" pos="113.92000000000002"/>
    <laneAreaDetector file="e2.output.xml" freq="60" friendlyPos="x" id="18_e2det_-79_1" lane="-79_1" length="60" pos="113.92000000000002"/>
    <laneAreaDetector file="e2.output.xml" freq="60" friendlyPos="x" id="18_e2det_19_0" lane="19_0" length="60" pos="112.89000000000001"/>
    <laneAreaDetector file="e2.output.xml" freq="60" friendlyPos="x" id="18_e2det_19_1" lane="19_1" length="60" pos="112.89000000000001"/>
    <laneAreaDetector file="e2.output.xml" freq="60" friendlyPos="x" id="24_e2det_-81_0" lane="-81_0" length="60" pos="138.36"/>
    <laneAreaDetector file="e2.output.xml" freq="60" friendlyPos="x" id="24_e2det_-81_1" lane="-81_1" length="60" pos="138.36"/>
    <laneAreaDetector file="e2.output.xml" freq="60" friendlyPos="x" id="24_e2det_-83_0" lane="-83_0" length="60" pos="45.68"/>
    <laneAreaDetector file="e2.output.xml" freq="60" friendlyPos="x" id="24_e2det_-83_1" lane="-83_1" length="60" pos="45.68"/>
    <laneAreaDetector file="e2.output.xml" freq="60" friendlyPos="x" id="24_e2det_-91_0" lane="-91_0" length="60" pos="124.36000000000001"/>
    <laneAreaDetector file="e2.output.xml" freq="60" friendlyPos="x" id="24_e2det_-91_1" lane="-91_1" length="60" pos="124.36000000000001"/>
    <laneAreaDetector file="e2.output.xml" freq="60" friendlyPos="x" id="24_e2det_25_0" lane="25_0" length="60" pos="135.89000000000001"/>
    <laneAreaDetector file="e2.output.xml" freq="60" friendlyPos="x" id="24_e2det_25_1" lane="25_1" length="60" pos="135.89000000000001"/>
    <laneAreaDetector file="e2.output.xml" freq="60" friendlyPos="x" id="37_e2det_-94_0" lane="-94_0" length="60" pos="71.84"/>
    <laneAreaDetector file="e2.output.xml" freq="60" friendlyPos="x" id="37_e2det_-94_1" lane="-94_1" length="60" pos="71.84"/>
    <laneAreaDetector file="e2.output.xml" freq="60" friendlyPos="x" id="37_e2det_-98_0" lane="-98_0" length="60" pos="105.59"/>
    <laneAreaDetector file="e2.output.xml" freq="60" friendlyPos="x" id="37_e2det_-98_1" lane="-98_1" length="60" pos="105.59"/>
    <laneAreaDetector file="e2.output.xml" freq="60" friendlyPos="x" id="37_e2det_38_0" lane="38_0" length="60" pos="107.27000000000001"/>
    <laneAreaDetector file="e2.output.xml" freq="60" friendlyPos="x" id="37_e2det_38_1" lane="38_1" length="60" pos="107.27000000000001"/>
    <laneAreaDetector file="e2.output.xml" freq="60" friendlyPos="x" id="37_e2det_65_0" lane="65_0" length="60" pos="36.9"/>
    <laneAreaDetector file="e2.output.xml" freq="60" friendlyPos="x" id="37_e2det_65_1" lane="65_1" length="60" pos="36.9"/>
    <laneAreaDetector file="e2.output.xml" freq="60" friendlyPos="x" id="63_e2det_-99_0" lane="-99_0" length="60" pos="125.74000000000001"/>
    <laneAreaDetector file="e2.output.xml" freq="60" friendlyPos="x" id="63_e2det_-99_1" lane="-99_1" length="60" pos="125.74000000000001"/>
    <laneAreaDetector file="e2.output.xml" freq="60" friendlyPos="x" id="63_e2det_64_0" lane="64_0" length="60" pos="77.84"/>
    <laneAreaDetector file="e2.output.xml" freq="60" friendlyPos="x" id="63_e2det_64_1" lane="64_1" length="60" pos="77.84"/>
    <laneAreaDetector file="e2.output.xml" freq="60" friendlyPos="x" id="63_e2det_71_0" lane="71_0" length="60" pos="124.86000000000001"/>
    <laneAreaDetector file="e2.output.xml" freq="60" friendlyPos="x" id="63_e2det_71_1" lane="71_1" length="60" pos="124.86000000000001"/>
</additional>
