<additional xmlns:xsi="http://www.w3.org/2001/XMLSchema-instance" xsi:noNamespaceSchemaLocation="http://sumo.dlr.de/xsd/additional_file.xsd">
    <laneAreaDetector file="e2.output.xml" freq="60" friendlyPos="x" id="68_e2det_-105_0" lane="-105_0" length="60" pos="81.73000000000002"/>
    <laneAreaDetector file="e2.output.xml" freq="60" friendlyPos="x" id="68_e2det_-111_0" lane="-111_0" length="60" pos="164.98000000000002"/>
    <laneAreaDetector file="e2.output.xml" freq="60" friendlyPos="x" id="68_e2det_69_0" lane="69_0" length="60" pos="168.78"/>
    <laneAreaDetector file="e2.output.xml" freq="60" friendlyPos="x" id="1_e2det_-11_0" lane="-11_0" length="60" pos="103.99000000000001"/>
    <laneAreaDetector file="e2.output.xml" freq="60" friendlyPos="x" id="1_e2det_-3_0" lane="-3_0" length="60" pos="161.24"/>
    <laneAreaDetector file="e2.output.xml" freq="60" friendlyPos="x" id="1_e2det_-7_0" lane="-7_0" length="60" pos="143.44"/>
    <laneAreaDetector file="e2.output.xml" freq="60" friendlyPos="x" id="1_e2det_-9_0" lane="-9_0" length="60" pos="138.46"/>
    <laneAreaDetector file="e2.output.xml" freq="60" friendlyPos="x" id="76_e2det_-114_0" lane="-114_0" length="60" pos="72.02000000000001"/>
    <laneAreaDetector file="e2.output.xml" freq="60" friendlyPos="x" id="76_e2det_-120_0" lane="-120_0" length="60" pos="77.32"/>
    <laneAreaDetector file="e2.output.xml" freq="60" friendlyPos="x" id="76_e2det_77_0" lane="77_0" length="60" pos="133.66"/>
    <laneAreaDetector file="e2.output.xml" freq="60" friendlyPos="x" id="78_e2det_-128_0" lane="-128_0" length="60" pos="151.19"/>
    <laneAreaDetector file="e2.output.xml" freq="60" friendlyPos="x" id="78_e2det_79_0" lane="79_0" length="60" pos="125.13"/>
    <laneAreaDetector file="e2.output.xml" freq="60" friendlyPos="x" id="78_e2det_99_0" lane="99_0" length="60" pos="137.45000000000002"/>
    <laneAreaDetector file="e2.output.xml" freq="60" friendlyPos="x" id="2_e2det_-13_0" lane="-13_0" length="60" pos="62.88"/>
    <laneAreaDetector file="e2.output.xml" freq="60" friendlyPos="x" id="2_e2det_-15_0" lane="-15_0" length="60" pos="78.38"/>
    <laneAreaDetector file="e2.output.xml" freq="60" friendlyPos="x" id="2_e2det_3_0" lane="3_0" length="60" pos="161.24"/>
    <laneAreaDetector file="e2.output.xml" freq="60" friendlyPos="x" id="82_e2det_-130_0" lane="-130_0" length="60" pos="126.71000000000001"/>
    <laneAreaDetector file="e2.output.xml" freq="60" friendlyPos="x" id="82_e2det_114_0" lane="114_0" length="60" pos="72.02000000000001"/>
    <laneAreaDetector file="e2.output.xml" freq="60" friendlyPos="x" id="82_e2det_83_0" lane="83_0" length="60" pos="51.93"/>
    <laneAreaDetector file="e2.output.xml" freq="60" friendlyPos="x" id="90_e2det_-136_0" lane="-136_0" length="60" pos="61.279999999999994"/>
    <laneAreaDetector file="e2.output.xml" freq="60" friendlyPos="x" id="90_e2det_-140_0" lane="-140_0" length="60" pos="151.48000000000002"/>
    <laneAreaDetector file="e2.output.xml" freq="60" friendlyPos="x" id="90_e2det_112_0" lane="112_0" length="60" pos="86.28"/>
    <laneAreaDetector file="e2.output.xml" freq="60" friendlyPos="x" id="90_e2det_91_0" lane="91_0" length="60" pos="130.42000000000002"/>
    <laneAreaDetector file="e2.output.xml" freq="60" friendlyPos="x" id="93_e2det_-142_0" lane="-142_0" length="60" pos="80.87"/>
    <laneAreaDetector file="e2.output.xml" freq="60" friendlyPos="x" id="93_e2det_-143_0" lane="-143_0" length="60" pos="173.82"/>
    <laneAreaDetector file="e2.output.xml" freq="60" friendlyPos="x" id="93_e2det_-145_0" lane="-145_0" length="60" pos="139.09"/>
    <laneAreaDetector file="e2.output.xml" freq="60" friendlyPos="x" id="93_e2det_94_0" lane="94_0" length="60" pos="82.91"/>
    <laneAreaDetector file="e2.output.xml" freq="60" friendlyPos="x" id="97_e2det_-147_0" lane="-147_0" length="60" pos="101.6"/>
    <laneAreaDetector file="e2.output.xml" freq="60" friendlyPos="x" id="97_e2det_-165_0" lane="-165_0" length="60" pos="147.4"/>
    <laneAreaDetector file="e2.output.xml" freq="60" friendlyPos="x" id="97_e2det_142_0" lane="142_0" length="60" pos="80.87"/>
    <laneAreaDetector file="e2.output.xml" freq="60" friendlyPos="x" id="97_e2det_98_0" lane="98_0" length="60" pos="119.44"/>
    <laneAreaDetector file="e2.output.xml" freq="60" friendlyPos="x" id="104_e2det_-166_0" lane="-166_0" length="60" pos="157.22"/>
    <laneAreaDetector file="e2.output.xml" freq="60" friendlyPos="x" id="104_e2det_105_0" lane="105_0" length="60" pos="81.73000000000002"/>
    <laneAreaDetector file="e2.output.xml" freq="60" friendlyPos="x" id="104_e2det_143_0" lane="143_0" length="60" pos="173.82"/>
    <laneAreaDetector file="e2.output.xml" freq="60" friendlyPos="x" id="8_e2det_-17_0" lane="-17_0" length="60" pos="153.39000000000001"/>
    <laneAreaDetector file="e2.output.xml" freq="60" friendlyPos="x" id="8_e2det_-19_0" lane="-19_0" length="60" pos="122.48000000000002"/>
    <laneAreaDetector file="e2.output.xml" freq="60" friendlyPos="x" id="8_e2det_-25_0" lane="-25_0" length="60" pos="143.79"/>
    <laneAreaDetector file="e2.output.xml" freq="60" friendlyPos="x" id="8_e2det_9_0" lane="9_0" length="60" pos="138.46"/>
    <laneAreaDetector file="e2.output.xml" freq="60" friendlyPos="x" id="110_e2det_-170_0" lane="-170_0" length="60" pos="117.65"/>
    <laneAreaDetector file="e2.output.xml" freq="60" friendlyPos="x" id="110_e2det_-174_0" lane="-174_0" length="60" pos="86.28"/>
    <laneAreaDetector file="e2.output.xml" freq="60" friendlyPos="x" id="110_e2det_111_0" lane="111_0" length="60" pos="164.98000000000002"/>
    <laneAreaDetector file="e2.output.xml" freq="60" friendlyPos="x" id="12_e2det_-38_0" lane="-38_0" length="60" pos="116.88"/>
    <laneAreaDetector file="e2.output.xml" freq="60" friendlyPos="x" id="12_e2det_-64_0" lane="-64_0" length="60" pos="84.81"/>
    <laneAreaDetector file="e2.output.xml" freq="60" friendlyPos="x" id="12_e2det_13_0" lane="13_0" length="60" pos="62.88"/>
    <laneAreaDetector file="e2.output.xml" freq="60" friendlyPos="x" id="12_e2det_17_0" lane="17_0" length="60" pos="153.39000000000001"/>
    <laneAreaDetector file="e2.output.xml" freq="60" friendlyPos="x" id="14_e2det_-65_0" lane="-65_0" length="60" pos="48.169999999999995"/>
    <laneAreaDetector file="e2.output.xml" freq="60" friendlyPos="x" id="14_e2det_-69_0" lane="-69_0" length="60" pos="168.78"/>
    <laneAreaDetector file="e2.output.xml" freq="60" friendlyPos="x" id="14_e2det_15_0" lane="15_0" length="60" pos="78.38"/>
    <laneAreaDetector file="e2.output.xml" freq="60" friendlyPos="x" id="18_e2det_-71_0" lane="-71_0" length="60" pos="136.65"/>
    <laneAreaDetector file="e2.output.xml" freq="60" friendlyPos="x" id="18_e2det_-77_0" lane="-77_0" length="60" pos="133.66"/>
    <laneAreaDetector file="e2.output.xml" freq="60" friendlyPos="x" id="18_e2det_-79_0" lane="-79_0" length="60" pos="125.13"/>
    <laneAreaDetector file="e2.output.xml" freq="60" friendlyPos="x" id="18_e2det_19_0" lane="19_0" length="60" pos="122.48000000000002"/>
    <laneAreaDetector file="e2.output.xml" freq="60" friendlyPos="x" id="24_e2det_-81_0" lane="-81_0" length="60" pos="141.82"/>
    <laneAreaDetector file="e2.output.xml" freq="60" friendlyPos="x" id="24_e2det_-83_0" lane="-83_0" length="60" pos="51.93"/>
    <laneAreaDetector file="e2.output.xml" freq="60" friendlyPos="x" id="24_e2det_-91_0" lane="-91_0" length="60" pos="130.42000000000002"/>
    <laneAreaDetector file="e2.output.xml" freq="60" friendlyPos="x" id="24_e2det_25_0" lane="25_0" length="60" pos="143.79"/>
    <laneAreaDetector file="e2.output.xml" freq="60" friendlyPos="x" id="37_e2det_-94_0" lane="-94_0" length="60" pos="82.91"/>
    <laneAreaDetector file="e2.output.xml" freq="60" friendlyPos="x" id="37_e2det_-98_0" lane="-98_0" length="60" pos="119.44"/>
    <laneAreaDetector file="e2.output.xml" freq="60" friendlyPos="x" id="37_e2det_38_0" lane="38_0" length="60" pos="116.88"/>
    <laneAreaDetector file="e2.output.xml" freq="60" friendlyPos="x" id="37_e2det_65_0" lane="65_0" length="60" pos="48.169999999999995"/>
    <laneAreaDetector file="e2.output.xml" freq="60" friendlyPos="x" id="63_e2det_-99_0" lane="-99_0" length="60" pos="137.45000000000002"/>
    <laneAreaDetector file="e2.output.xml" freq="60" friendlyPos="x" id="63_e2det_64_0" lane="64_0" length="60" pos="84.81"/>
    <laneAreaDetector file="e2.output.xml" freq="60" friendlyPos="x" id="63_e2det_71_0" lane="71_0" length="60" pos="136.65"/>
</additional>
