<?xml version="1.0" encoding="UTF-8"?>

<!-- generated on 06/22/18 01:29:07 by Eclipse SUMO duarouter Version v0_32_0+1428-4ab3f27cbd
<configuration xmlns:xsi="http://www.w3.org/2001/XMLSchema-instance" xsi:noNamespaceSchemaLocation="http://sumo.dlr.de/xsd/duarouterConfiguration.xsd">

    <input>
        <net-file value="city/city.net.xml"/>
        <route-files value="city/trips.trips.xml"/>
    </input>

    <output>
        <output-file value="city/routes.rou.xml"/>
        <alternatives-output value="city/routes.rou.alt.xml"/>
    </output>

    <processing>
        <ignore-errors value="true"/>
    </processing>

    <time>
        <begin value="0"/>
        <end value="230.76923076923077"/>
    </time>

    <report>
        <no-warnings value="true"/>
        <no-step-log value="true"/>
    </report>

</configuration>
-->

<routes xmlns:xsi="http://www.w3.org/2001/XMLSchema-instance" xsi:noNamespaceSchemaLocation="http://sumo.dlr.de/xsd/routes_file.xsd">
    <vehicle id="0" depart="0.00">
        <route edges="-124 -19 -9 11"/>
    </vehicle>
    <vehicle id="1" depart="0.00">
        <route edges="-254 -115 -15 13 -17 25"/>
    </vehicle>
    <vehicle id="2" depart="1.00">
        <route edges="-124 144"/>
    </vehicle>
    <vehicle id="3" depart="1.00">
        <route edges="-144 124"/>
    </vehicle>
    <vehicle id="4" depart="1.00">
        <route edges="-124 -19 103 -118 124"/>
    </vehicle>
    <vehicle id="5" depart="1.00">
        <route edges="-124 -19 103 -118 124"/>
    </vehicle>
    <vehicle id="6" depart="2.00">
        <route edges="-254 256"/>
    </vehicle>
    <vehicle id="7" depart="3.00">
        <route edges="-254 -115 107 252"/>
    </vehicle>
    <vehicle id="8" depart="3.00">
        <route edges="-144 -19 -9 11"/>
    </vehicle>
    <vehicle id="9" depart="4.00">
        <route edges="-11 9 25"/>
    </vehicle>
    <vehicle id="10" depart="6.00">
        <route edges="-11 9 63 -116 -7 11"/>
    </vehicle>
    <vehicle id="11" depart="6.00">
        <route edges="-254 -115 -15 13 -17 19 144"/>
    </vehicle>
    <vehicle id="12" depart="9.00">
        <route edges="-256 -115 -15 -3 11"/>
    </vehicle>
    <vehicle id="13" depart="10.00">
        <route edges="-126 -19 17 -13 15 115 256"/>
    </vehicle>
    <vehicle id="14" depart="10.00">
        <route edges="-126 -19 -9 11"/>
    </vehicle>
    <vehicle id="15" depart="11.00">
        <route edges="-254 -115 -15 13 -17 25"/>
    </vehicle>
    <vehicle id="16" depart="12.00">
        <route edges="-126 -19 -9 11"/>
    </vehicle>
    <vehicle id="17" depart="12.00">
        <route edges="-258 -115 -15 -3 11"/>
    </vehicle>
    <vehicle id="18" depart="14.00">
        <route edges="-11 3 15 115 254"/>
    </vehicle>
    <vehicle id="19" depart="16.00">
        <route edges="-124 -19 25"/>
    </vehicle>
    <vehicle id="20" depart="16.00">
        <route edges="-254 -115 -15 13 -17 19 124"/>
    </vehicle>
    <vehicle id="21" depart="17.00">
        <route edges="-252 -107 115 256"/>
    </vehicle>
    <vehicle id="22" depart="18.00">
        <route edges="-144 -19 25"/>
    </vehicle>
    <vehicle id="23" depart="19.00">
        <route edges="-252 -107 -15 -3 11"/>
    </vehicle>
    <vehicle id="24" depart="20.00">
        <route edges="-252 -107 115 258"/>
    </vehicle>
    <vehicle id="25" depart="21.00">
        <route edges="-25 19 126"/>
    </vehicle>
    <vehicle id="26" depart="21.00">
        <route edges="-144 -19 25"/>
    </vehicle>
    <vehicle id="27" depart="21.00">
        <route edges="-11 9 63 -116 -7 11"/>
    </vehicle>
    <vehicle id="28" depart="22.00">
        <route edges="-126 -19 17 -13 15 115 258"/>
    </vehicle>
    <vehicle id="29" depart="23.00">
        <route edges="-144 -19 17 -13 15 115 254"/>
    </vehicle>
    <vehicle id="30" depart="24.00">
        <route edges="-126 -19 17 -13 15 115 256"/>
    </vehicle>
    <vehicle id="31" depart="27.00">
        <route edges="-258 -115 -15 13 -17 -9 3 15 115 258"/>
    </vehicle>
    <vehicle id="32" depart="27.00">
        <route edges="-124 144"/>
    </vehicle>
    <vehicle id="33" depart="28.00">
        <route edges="-124 144"/>
    </vehicle>
    <vehicle id="34" depart="28.00">
        <route edges="-126 -19 -9 11"/>
    </vehicle>
    <vehicle id="35" depart="30.00">
        <route edges="-11 9 63 -116 -7 11"/>
    </vehicle>
    <vehicle id="36" depart="32.00">
        <route edges="-124 -19 25"/>
    </vehicle>
    <vehicle id="37" depart="32.00">
        <route edges="-25 19 144"/>
    </vehicle>
    <vehicle id="38" depart="32.00">
        <route edges="-256 -115 -15 13 -17 -9 3 15 115 256"/>
    </vehicle>
    <vehicle id="39" depart="33.00">
        <route edges="-256 -115 -15 13 -17 19 126"/>
    </vehicle>
    <vehicle id="40" depart="33.00">
        <route edges="-25 17 -13 15 115 254"/>
    </vehicle>
    <vehicle id="41" depart="34.00">
        <route edges="-256 254"/>
    </vehicle>
    <vehicle id="42" depart="35.00">
        <route edges="-124 126"/>
    </vehicle>
    <vehicle id="43" depart="35.00">
        <route edges="-124 -19 17 -13 15 115 254"/>
    </vehicle>
    <vehicle id="44" depart="36.00">
        <route edges="-144 -19 -9 11"/>
    </vehicle>
    <vehicle id="45" depart="37.00">
        <route edges="-256 -115 -15 13 -17 19 124"/>
    </vehicle>
    <vehicle id="46" depart="38.00">
        <route edges="-254 -115 -15 13 -17 19 126"/>
    </vehicle>
    <vehicle id="47" depart="39.00">
        <route edges="-124 -19 25"/>
    </vehicle>
    <vehicle id="48" depart="39.00">
        <route edges="-256 258"/>
    </vehicle>
    <vehicle id="49" depart="41.00">
        <route edges="-11 9 25"/>
    </vehicle>
    <vehicle id="50" depart="43.00">
        <route edges="-258 256"/>
    </vehicle>
    <vehicle id="51" depart="44.00">
        <route edges="-252 -107 -15 -3 11"/>
    </vehicle>
    <vehicle id="52" depart="45.00">
        <route edges="-124 -19 17 -13 15 115 258"/>
    </vehicle>
    <vehicle id="53" depart="46.00">
        <route edges="-25 17 -13 15 107 252"/>
    </vehicle>
    <vehicle id="54" depart="47.00">
        <route edges="-25 103 -118 -19 25"/>
    </vehicle>
    <vehicle id="55" depart="47.00">
        <route edges="-124 -19 25"/>
    </vehicle>
    <vehicle id="56" depart="49.00">
        <route edges="-258 256"/>
    </vehicle>
    <vehicle id="57" depart="50.00">
        <route edges="-258 -115 -15 13 -17 -9 3 15 115 258"/>
    </vehicle>
    <vehicle id="58" depart="50.00">
        <route edges="-252 -107 115 258"/>
    </vehicle>
    <vehicle id="59" depart="51.00">
        <route edges="-25 19 144"/>
    </vehicle>
    <vehicle id="60" depart="51.00">
        <route edges="-124 -19 17 -13 15 115 254"/>
    </vehicle>
    <vehicle id="61" depart="52.00">
        <route edges="-25 19 144"/>
    </vehicle>
    <vehicle id="62" depart="52.00">
        <route edges="-25 17 -13 15 115 258"/>
    </vehicle>
    <vehicle id="63" depart="52.00">
        <route edges="-11 9 25"/>
    </vehicle>
    <vehicle id="64" depart="53.00">
        <route edges="-144 126"/>
    </vehicle>
    <vehicle id="65" depart="54.00">
        <route edges="-25 19 144"/>
    </vehicle>
    <vehicle id="66" depart="56.00">
        <route edges="-25 17 -13 15 115 254"/>
    </vehicle>
    <vehicle id="67" depart="56.00">
        <route edges="-11 9 63 -116 -7 11"/>
    </vehicle>
    <vehicle id="68" depart="56.00">
        <route edges="-25 19 126"/>
    </vehicle>
    <vehicle id="69" depart="57.00">
        <route edges="-254 258"/>
    </vehicle>
    <vehicle id="70" depart="58.00">
        <route edges="-252 -107 115 256"/>
    </vehicle>
    <vehicle id="71" depart="61.00">
        <route edges="-254 -115 -15 13 -17 19 144"/>
    </vehicle>
    <vehicle id="72" depart="62.00">
        <route edges="-11 9 25"/>
    </vehicle>
    <vehicle id="73" depart="63.00">
        <route edges="-254 -115 -15 13 -17 19 126"/>
    </vehicle>
    <vehicle id="74" depart="63.00">
        <route edges="-25 103 -118 -19 25"/>
    </vehicle>
    <vehicle id="75" depart="64.00">
        <route edges="-124 -19 17 -13 15 107 252"/>
    </vehicle>
    <vehicle id="76" depart="65.00">
        <route edges="-256 -115 -15 13 -17 19 126"/>
    </vehicle>
    <vehicle id="77" depart="65.00">
        <route edges="-124 -19 103 -118 124"/>
    </vehicle>
    <vehicle id="78" depart="66.00">
        <route edges="-144 -19 25"/>
    </vehicle>
    <vehicle id="79" depart="66.00">
        <route edges="-252 -107 115 256"/>
    </vehicle>
    <vehicle id="80" depart="67.00">
        <route edges="-124 -19 17 -13 15 115 254"/>
    </vehicle>
    <vehicle id="81" depart="67.00">
        <route edges="-25 -9 11"/>
    </vehicle>
    <vehicle id="82" depart="68.00">
        <route edges="-256 -115 -15 13 -17 19 126"/>
    </vehicle>
    <vehicle id="83" depart="68.00">
        <route edges="-252 -107 115 254"/>
    </vehicle>
    <vehicle id="84" depart="69.00">
        <route edges="-124 -19 17 -13 15 115 254"/>
    </vehicle>
    <vehicle id="85" depart="70.00">
        <route edges="-11 3 15 107 252"/>
    </vehicle>
    <vehicle id="86" depart="72.00">
        <route edges="-144 -19 17 -13 15 115 258"/>
    </vehicle>
    <vehicle id="87" depart="72.00">
        <route edges="-25 19 126"/>
    </vehicle>
    <vehicle id="88" depart="72.00">
        <route edges="-254 -115 -15 -3 11"/>
    </vehicle>
    <vehicle id="89" depart="74.00">
        <route edges="-256 -115 -15 13 -17 19 144"/>
    </vehicle>
    <vehicle id="90" depart="74.00">
        <route edges="-126 -19 103 -118 126"/>
    </vehicle>
    <vehicle id="91" depart="74.00">
        <route edges="-126 -19 -9 11"/>
    </vehicle>
    <vehicle id="92" depart="74.00">
        <route edges="-124 -19 -9 11"/>
    </vehicle>
    <vehicle id="93" depart="77.00">
        <route edges="-258 -115 -15 13 -17 -9 3 15 115 258"/>
    </vehicle>
    <vehicle id="94" depart="77.00">
        <route edges="-144 -19 17 -13 15 115 254"/>
    </vehicle>
    <vehicle id="95" depart="77.00">
        <route edges="-144 124"/>
    </vehicle>
    <vehicle id="96" depart="77.00">
        <route edges="-25 -9 11"/>
    </vehicle>
    <vehicle id="97" depart="78.00">
        <route edges="-144 -19 17 -13 15 115 258"/>
    </vehicle>
    <vehicle id="98" depart="78.00">
        <route edges="-124 126"/>
    </vehicle>
    <vehicle id="99" depart="81.00">
        <route edges="-252 -107 115 254"/>
    </vehicle>
    <vehicle id="100" depart="81.00">
        <route edges="-144 -19 17 -13 15 115 254"/>
    </vehicle>
    <vehicle id="101" depart="85.00">
        <route edges="-258 -115 -15 13 -17 -9 3 15 115 258"/>
    </vehicle>
    <vehicle id="102" depart="85.00">
        <route edges="-25 103 -118 -19 25"/>
    </vehicle>
    <vehicle id="103" depart="85.00">
        <route edges="-126 -19 -9 11"/>
    </vehicle>
    <vehicle id="104" depart="86.00">
        <route edges="-124 -19 -9 11"/>
    </vehicle>
    <vehicle id="105" depart="87.00">
        <route edges="-25 17 -13 15 115 258"/>
    </vehicle>
    <vehicle id="106" depart="89.00">
        <route edges="-25 103 -118 -19 25"/>
    </vehicle>
    <vehicle id="107" depart="90.00">
        <route edges="-11 9 19 126"/>
    </vehicle>
    <vehicle id="108" depart="91.00">
        <route edges="-11 9 19 124"/>
    </vehicle>
    <vehicle id="109" depart="91.00">
        <route edges="-258 -115 -15 13 -17 19 144"/>
    </vehicle>
    <vehicle id="110" depart="91.00">
        <route edges="-124 126"/>
    </vehicle>
    <vehicle id="111" depart="92.00">
        <route edges="-258 -115 -15 -3 11"/>
    </vehicle>
    <vehicle id="112" depart="92.00">
        <route edges="-144 -19 17 -13 15 115 254"/>
    </vehicle>
    <vehicle id="113" depart="92.00">
        <route edges="-126 -19 17 -13 15 115 254"/>
    </vehicle>
    <vehicle id="114" depart="93.00">
        <route edges="-254 -115 -15 -3 11"/>
    </vehicle>
    <vehicle id="115" depart="95.00">
        <route edges="-124 126"/>
    </vehicle>
    <vehicle id="116" depart="95.00">
        <route edges="-144 -19 17 -13 15 107 252"/>
    </vehicle>
    <vehicle id="117" depart="95.00">
        <route edges="-144 -19 17 -13 15 107 252"/>
    </vehicle>
    <vehicle id="118" depart="96.00">
        <route edges="-254 -115 -15 13 -17 19 144"/>
    </vehicle>
    <vehicle id="119" depart="96.00">
        <route edges="-124 126"/>
    </vehicle>
    <vehicle id="120" depart="99.00">
        <route edges="-11 9 19 126"/>
    </vehicle>
    <vehicle id="121" depart="100.00">
        <route edges="-252 -107 -15 13 -17 19 124"/>
    </vehicle>
    <vehicle id="122" depart="100.00">
        <route edges="-25 17 -13 15 115 254"/>
    </vehicle>
    <vehicle id="123" depart="100.00">
        <route edges="-258 -115 -15 13 -17 25"/>
    </vehicle>
    <vehicle id="124" depart="100.00">
        <route edges="-256 -115 -15 13 -17 -9 3 15 115 256"/>
    </vehicle>
    <vehicle id="125" depart="101.00">
        <route edges="-25 17 -13 15 115 258"/>
    </vehicle>
    <vehicle id="126" depart="104.00">
        <route edges="-126 -19 17 -13 15 115 256"/>
    </vehicle>
    <vehicle id="127" depart="104.00">
        <route edges="-11 9 25"/>
    </vehicle>
    <vehicle id="128" depart="105.00">
        <route edges="-252 -107 -15 -3 9 17 -13 15 107 252"/>
    </vehicle>
    <vehicle id="129" depart="106.00">
        <route edges="-256 254"/>
    </vehicle>
    <vehicle id="130" depart="107.00">
        <route edges="-252 -107 -15 13 -17 19 124"/>
    </vehicle>
    <vehicle id="131" depart="107.00">
        <route edges="-25 19 144"/>
    </vehicle>
    <vehicle id="132" depart="108.00">
        <route edges="-254 -115 107 252"/>
    </vehicle>
    <vehicle id="133" depart="109.00">
        <route edges="-258 -115 -15 13 -17 -9 3 15 115 258"/>
    </vehicle>
    <vehicle id="134" depart="109.00">
        <route edges="-11 3 15 107 252"/>
    </vehicle>
    <vehicle id="135" depart="109.00">
        <route edges="-252 -107 115 258"/>
    </vehicle>
    <vehicle id="136" depart="111.00">
        <route edges="-144 -19 -9 11"/>
    </vehicle>
    <vehicle id="137" depart="112.00">
        <route edges="-144 -19 17 -13 15 115 256"/>
    </vehicle>
    <vehicle id="138" depart="113.00">
        <route edges="-256 -115 -15 -3 11"/>
    </vehicle>
    <vehicle id="139" depart="114.00">
        <route edges="-124 -19 17 -13 15 115 254"/>
    </vehicle>
    <vehicle id="140" depart="114.00">
        <route edges="-25 -9 11"/>
    </vehicle>
    <vehicle id="141" depart="114.00">
        <route edges="-144 -19 17 -13 15 115 254"/>
    </vehicle>
    <vehicle id="142" depart="114.00">
        <route edges="-254 -115 -15 -3 11"/>
    </vehicle>
    <vehicle id="143" depart="115.00">
        <route edges="-144 -19 17 -13 15 115 256"/>
    </vehicle>
    <vehicle id="144" depart="115.00">
        <route edges="-11 9 63 -116 -7 11"/>
    </vehicle>
    <vehicle id="145" depart="115.00">
        <route edges="-252 -107 -15 -3 11"/>
    </vehicle>
    <vehicle id="146" depart="116.00">
        <route edges="-252 -107 -15 13 -17 25"/>
    </vehicle>
    <vehicle id="147" depart="117.00">
        <route edges="-256 -115 -15 13 -17 19 144"/>
    </vehicle>
    <vehicle id="148" depart="117.00">
        <route edges="-252 -107 115 256"/>
    </vehicle>
    <vehicle id="149" depart="117.00">
        <route edges="-144 126"/>
    </vehicle>
    <vehicle id="150" depart="118.00">
        <route edges="-126 -19 17 -13 15 107 252"/>
    </vehicle>
    <vehicle id="151" depart="118.00">
        <route edges="-258 -115 -15 13 -17 19 126"/>
    </vehicle>
    <vehicle id="152" depart="118.00">
        <route edges="-258 -115 -15 -3 11"/>
    </vehicle>
    <vehicle id="153" depart="119.00">
        <route edges="-254 -115 -15 13 -17 25"/>
    </vehicle>
    <vehicle id="154" depart="119.00">
        <route edges="-124 -19 17 -13 15 107 252"/>
    </vehicle>
    <vehicle id="155" depart="119.00">
        <route edges="-126 -19 17 -13 15 107 252"/>
    </vehicle>
    <vehicle id="156" depart="120.00">
        <route edges="-126 -19 103 -118 126"/>
    </vehicle>
    <vehicle id="157" depart="120.00">
        <route edges="-254 -115 -15 13 -17 25"/>
    </vehicle>
    <vehicle id="158" depart="120.00">
        <route edges="-144 126"/>
    </vehicle>
    <vehicle id="159" depart="121.00">
        <route edges="-126 -19 17 -13 15 115 258"/>
    </vehicle>
    <vehicle id="160" depart="121.00">
        <route edges="-256 -115 -15 13 -17 19 124"/>
    </vehicle>
    <vehicle id="161" depart="122.00">
        <route edges="-256 -115 -15 13 -17 19 144"/>
    </vehicle>
    <vehicle id="162" depart="126.00">
        <route edges="-252 -107 -15 13 -17 25"/>
    </vehicle>
    <vehicle id="163" depart="127.00">
        <route edges="-258 -115 -15 13 -17 19 126"/>
    </vehicle>
    <vehicle id="164" depart="128.00">
        <route edges="-258 -115 -15 13 -17 -9 3 15 115 258"/>
    </vehicle>
    <vehicle id="165" depart="128.00">
        <route edges="-25 17 -13 15 107 252"/>
    </vehicle>
    <vehicle id="166" depart="130.00">
        <route edges="-256 258"/>
    </vehicle>
    <vehicle id="167" depart="130.00">
        <route edges="-25 17 -13 15 115 256"/>
    </vehicle>
    <vehicle id="168" depart="131.00">
        <route edges="-25 17 -13 15 107 252"/>
    </vehicle>
    <vehicle id="169" depart="132.00">
        <route edges="-256 254"/>
    </vehicle>
    <vehicle id="170" depart="132.00">
        <route edges="-258 256"/>
    </vehicle>
    <vehicle id="171" depart="133.00">
        <route edges="-25 19 126"/>
    </vehicle>
    <vehicle id="172" depart="134.00">
        <route edges="-124 -19 17 -13 15 107 252"/>
    </vehicle>
    <vehicle id="173" depart="136.00">
        <route edges="-144 118 -103 19 144"/>
    </vehicle>
    <vehicle id="174" depart="137.00">
        <route edges="-126 -19 17 -13 15 115 254"/>
    </vehicle>
    <vehicle id="175" depart="138.00">
        <route edges="-144 -19 17 -13 15 115 254"/>
    </vehicle>
    <vehicle id="176" depart="138.00">
        <route edges="-11 3 15 115 256"/>
    </vehicle>
    <vehicle id="177" depart="138.00">
        <route edges="-11 3 15 115 254"/>
    </vehicle>
    <vehicle id="178" depart="138.00">
        <route edges="-25 17 -13 15 107 252"/>
    </vehicle>
    <vehicle id="179" depart="139.00">
        <route edges="-11 9 25"/>
    </vehicle>
    <vehicle id="180" depart="139.00">
        <route edges="-252 -107 -15 13 -17 25"/>
    </vehicle>
    <vehicle id="181" depart="140.00">
        <route edges="-252 -107 -15 -3 9 17 -13 15 107 252"/>
    </vehicle>
    <vehicle id="182" depart="140.00">
        <route edges="-258 -115 -15 13 -17 25"/>
    </vehicle>
    <vehicle id="183" depart="141.00">
        <route edges="-25 19 126"/>
    </vehicle>
    <vehicle id="184" depart="142.00">
        <route edges="-258 -115 107 252"/>
    </vehicle>
    <vehicle id="185" depart="143.00">
        <route edges="-11 9 19 124"/>
    </vehicle>
    <vehicle id="186" depart="143.00">
        <route edges="-144 -19 17 -13 15 115 256"/>
    </vehicle>
    <vehicle id="187" depart="143.00">
        <route edges="-252 -107 -15 13 -17 19 126"/>
    </vehicle>
    <vehicle id="188" depart="144.00">
        <route edges="-256 -115 -15 13 -17 19 124"/>
    </vehicle>
    <vehicle id="189" depart="145.00">
        <route edges="-11 3 15 115 256"/>
    </vehicle>
    <vehicle id="190" depart="145.00">
        <route edges="-144 -19 17 -13 15 115 256"/>
    </vehicle>
    <vehicle id="191" depart="145.00">
        <route edges="-25 -9 11"/>
    </vehicle>
    <vehicle id="192" depart="145.00">
        <route edges="-11 3 15 115 256"/>
    </vehicle>
    <vehicle id="193" depart="146.00">
        <route edges="-256 258"/>
    </vehicle>
    <vehicle id="194" depart="146.00">
        <route edges="-126 -19 -9 11"/>
    </vehicle>
    <vehicle id="195" depart="146.00">
        <route edges="-126 -19 25"/>
    </vehicle>
    <vehicle id="196" depart="146.00">
        <route edges="-144 -19 17 -13 15 107 252"/>
    </vehicle>
    <vehicle id="197" depart="148.00">
        <route edges="-252 -107 115 254"/>
    </vehicle>
    <vehicle id="198" depart="150.00">
        <route edges="-124 -19 17 -13 15 115 254"/>
    </vehicle>
    <vehicle id="199" depart="152.00">
        <route edges="-11 3 15 107 252"/>
    </vehicle>
    <vehicle id="200" depart="152.00">
        <route edges="-25 17 -13 15 107 252"/>
    </vehicle>
    <vehicle id="201" depart="153.00">
        <route edges="-252 -107 -15 -3 9 17 -13 15 107 252"/>
    </vehicle>
    <vehicle id="202" depart="153.00">
        <route edges="-11 9 25"/>
    </vehicle>
    <vehicle id="203" depart="155.00">
        <route edges="-254 -115 -15 13 -17 19 124"/>
    </vehicle>
    <vehicle id="204" depart="156.00">
        <route edges="-124 -19 17 -13 15 115 258"/>
    </vehicle>
    <vehicle id="205" depart="157.00">
        <route edges="-126 124"/>
    </vehicle>
    <vehicle id="206" depart="157.00">
        <route edges="-126 144"/>
    </vehicle>
    <vehicle id="207" depart="158.00">
        <route edges="-126 144"/>
    </vehicle>
    <vehicle id="208" depart="158.00">
        <route edges="-254 -115 -15 13 -17 25"/>
    </vehicle>
    <vehicle id="209" depart="160.00">
        <route edges="-252 -107 -15 -3 11"/>
    </vehicle>
    <vehicle id="210" depart="160.00">
        <route edges="-126 -19 17 -13 15 115 254"/>
    </vehicle>
    <vehicle id="211" depart="160.00">
        <route edges="-126 -19 25"/>
    </vehicle>
    <vehicle id="212" depart="160.00">
        <route edges="-11 9 19 126"/>
    </vehicle>
    <vehicle id="213" depart="162.00">
        <route edges="-11 9 19 126"/>
    </vehicle>
    <vehicle id="214" depart="163.00">
        <route edges="-124 -19 17 -13 15 115 256"/>
    </vehicle>
    <vehicle id="215" depart="163.00">
        <route edges="-126 -19 103 -118 126"/>
    </vehicle>
    <vehicle id="216" depart="164.00">
        <route edges="-126 -19 17 -13 15 107 252"/>
    </vehicle>
    <vehicle id="217" depart="164.00">
        <route edges="-124 -19 17 -13 15 107 252"/>
    </vehicle>
    <vehicle id="218" depart="165.00">
        <route edges="-256 -115 -15 13 -17 25"/>
    </vehicle>
    <vehicle id="219" depart="165.00">
        <route edges="-254 -115 107 252"/>
    </vehicle>
    <vehicle id="220" depart="166.00">
        <route edges="-25 17 -13 15 115 256"/>
    </vehicle>
    <vehicle id="221" depart="166.00">
        <route edges="-258 256"/>
    </vehicle>
    <vehicle id="222" depart="169.00">
        <route edges="-256 -115 -15 13 -17 19 126"/>
    </vehicle>
    <vehicle id="223" depart="171.00">
        <route edges="-25 17 -13 15 115 256"/>
    </vehicle>
    <vehicle id="224" depart="173.00">
        <route edges="-25 19 126"/>
    </vehicle>
    <vehicle id="225" depart="173.00">
        <route edges="-256 254"/>
    </vehicle>
    <vehicle id="226" depart="175.00">
        <route edges="-252 -107 115 256"/>
    </vehicle>
    <vehicle id="227" depart="175.00">
        <route edges="-144 -19 17 -13 15 115 256"/>
    </vehicle>
    <vehicle id="228" depart="176.00">
        <route edges="-25 -9 11"/>
    </vehicle>
    <vehicle id="229" depart="177.00">
        <route edges="-11 9 63 -116 -7 11"/>
    </vehicle>
    <vehicle id="230" depart="177.00">
        <route edges="-252 -107 115 254"/>
    </vehicle>
    <vehicle id="231" depart="179.00">
        <route edges="-126 124"/>
    </vehicle>
    <vehicle id="232" depart="180.00">
        <route edges="-254 -115 -15 13 -17 25"/>
    </vehicle>
    <vehicle id="233" depart="180.00">
        <route edges="-124 -19 17 -13 15 107 252"/>
    </vehicle>
    <vehicle id="234" depart="181.00">
        <route edges="-252 -107 115 254"/>
    </vehicle>
    <vehicle id="235" depart="181.00">
        <route edges="-258 -115 -15 13 -17 19 144"/>
    </vehicle>
    <vehicle id="236" depart="181.00">
        <route edges="-258 -115 -15 13 -17 19 124"/>
    </vehicle>
    <vehicle id="237" depart="182.00">
        <route edges="-25 17 -13 15 115 258"/>
    </vehicle>
    <vehicle id="238" depart="182.00">
        <route edges="-256 -115 -15 -3 11"/>
    </vehicle>
    <vehicle id="239" depart="184.00">
        <route edges="-124 -19 -9 11"/>
    </vehicle>
    <vehicle id="240" depart="185.00">
        <route edges="-254 -115 -15 -3 11"/>
    </vehicle>
    <vehicle id="241" depart="188.00">
        <route edges="-126 -19 103 -118 126"/>
    </vehicle>
    <vehicle id="242" depart="188.00">
        <route edges="-256 -115 -15 13 -17 25"/>
    </vehicle>
    <vehicle id="243" depart="189.00">
        <route edges="-254 -115 -15 13 -17 19 144"/>
    </vehicle>
    <vehicle id="244" depart="189.00">
        <route edges="-256 258"/>
    </vehicle>
    <vehicle id="245" depart="190.00">
        <route edges="-25 103 -118 -19 25"/>
    </vehicle>
    <vehicle id="246" depart="191.00">
        <route edges="-124 -19 17 -13 15 107 252"/>
    </vehicle>
    <vehicle id="247" depart="192.00">
        <route edges="-256 258"/>
    </vehicle>
    <vehicle id="248" depart="193.00">
        <route edges="-124 126"/>
    </vehicle>
    <vehicle id="249" depart="194.00">
        <route edges="-258 -115 -15 13 -17 -9 3 15 115 258"/>
    </vehicle>
    <vehicle id="250" depart="194.00">
        <route edges="-252 -107 115 258"/>
    </vehicle>
    <vehicle id="251" depart="195.00">
        <route edges="-252 -107 -15 13 -17 19 144"/>
    </vehicle>
    <vehicle id="252" depart="195.00">
        <route edges="-126 -19 17 -13 15 115 256"/>
    </vehicle>
    <vehicle id="253" depart="196.00">
        <route edges="-124 -19 25"/>
    </vehicle>
    <vehicle id="254" depart="198.00">
        <route edges="-252 -107 -15 13 -17 19 144"/>
    </vehicle>
    <vehicle id="255" depart="202.00">
        <route edges="-126 -19 17 -13 15 115 258"/>
    </vehicle>
    <vehicle id="256" depart="203.00">
        <route edges="-11 9 63 -116 -7 11"/>
    </vehicle>
    <vehicle id="257" depart="204.00">
        <route edges="-254 -115 -15 13 -17 19 144"/>
    </vehicle>
    <vehicle id="258" depart="206.00">
        <route edges="-25 19 126"/>
    </vehicle>
    <vehicle id="259" depart="206.00">
        <route edges="-144 -19 25"/>
    </vehicle>
    <vehicle id="260" depart="206.00">
        <route edges="-252 -107 -15 13 -17 19 144"/>
    </vehicle>
    <vehicle id="261" depart="208.00">
        <route edges="-254 -115 -15 13 -17 19 144"/>
    </vehicle>
    <vehicle id="262" depart="208.00">
        <route edges="-144 -19 17 -13 15 115 254"/>
    </vehicle>
    <vehicle id="263" depart="208.00">
        <route edges="-126 -19 17 -13 15 107 252"/>
    </vehicle>
    <vehicle id="264" depart="208.00">
        <route edges="-254 -115 -15 13 -17 19 124"/>
    </vehicle>
    <vehicle id="265" depart="209.00">
        <route edges="-126 -19 17 -13 15 115 254"/>
    </vehicle>
    <vehicle id="266" depart="209.00">
        <route edges="-256 258"/>
    </vehicle>
    <vehicle id="267" depart="211.00">
        <route edges="-144 -19 25"/>
    </vehicle>
    <vehicle id="268" depart="212.00">
        <route edges="-252 -107 115 254"/>
    </vehicle>
    <vehicle id="269" depart="213.00">
        <route edges="-144 118 -103 19 144"/>
    </vehicle>
    <vehicle id="270" depart="214.00">
        <route edges="-11 9 25"/>
    </vehicle>
    <vehicle id="271" depart="215.00">
        <route edges="-144 126"/>
    </vehicle>
    <vehicle id="272" depart="216.00">
        <route edges="-11 9 19 124"/>
    </vehicle>
    <vehicle id="273" depart="217.00">
        <route edges="-144 -19 17 -13 15 115 258"/>
    </vehicle>
    <vehicle id="274" depart="217.00">
        <route edges="-254 258"/>
    </vehicle>
    <vehicle id="275" depart="217.00">
        <route edges="-124 -19 17 -13 15 115 258"/>
    </vehicle>
    <vehicle id="276" depart="218.00">
        <route edges="-124 -19 103 -118 124"/>
    </vehicle>
    <vehicle id="277" depart="219.00">
        <route edges="-252 -107 -15 13 -17 19 124"/>
    </vehicle>
    <vehicle id="278" depart="220.00">
        <route edges="-124 -19 17 -13 15 115 254"/>
    </vehicle>
    <vehicle id="279" depart="220.00">
        <route edges="-11 9 19 124"/>
    </vehicle>
    <vehicle id="280" depart="220.00">
        <route edges="-11 3 15 107 252"/>
    </vehicle>
    <vehicle id="281" depart="220.00">
        <route edges="-124 -19 25"/>
    </vehicle>
    <vehicle id="282" depart="220.00">
        <route edges="-126 -19 103 -118 126"/>
    </vehicle>
    <vehicle id="283" depart="221.00">
        <route edges="-256 -115 107 252"/>
    </vehicle>
    <vehicle id="284" depart="222.00">
        <route edges="-256 -115 -15 13 -17 19 126"/>
    </vehicle>
    <vehicle id="285" depart="224.00">
        <route edges="-144 124"/>
    </vehicle>
    <vehicle id="286" depart="225.00">
        <route edges="-11 3 15 107 252"/>
    </vehicle>
    <vehicle id="287" depart="225.00">
        <route edges="-254 258"/>
    </vehicle>
    <vehicle id="288" depart="225.00">
        <route edges="-124 126"/>
    </vehicle>
    <vehicle id="289" depart="225.00">
        <route edges="-124 -19 17 -13 15 115 254"/>
    </vehicle>
    <vehicle id="290" depart="227.00">
        <route edges="-144 -19 -9 11"/>
    </vehicle>
    <vehicle id="291" depart="228.00">
        <route edges="-256 -115 -15 13 -17 19 124"/>
    </vehicle>
    <vehicle id="292" depart="228.00">
        <route edges="-126 -19 25"/>
    </vehicle>
    <vehicle id="293" depart="230.00">
        <route edges="-144 -19 25"/>
    </vehicle>
</routes>
