<?xml version="1.0" encoding="UTF-8"?>
<!-- generated on 2018-06-22 02:06:46.219226 by $Id: random_trips.py 25741 2017-08-30 11:58:01Z behrisch $
  options: city 200 15
-->
<routes xmlns:xsi="http://www.w3.org/2001/XMLSchema-instance" xsi:noNamespaceSchemaLocation="http://sumo.dlr.de/xsd/routes_file.xsd">
    <trip id="0" depart="1.00" from="-220" to="7"/>
    <trip id="1" depart="1.00" from="-222" to="11"/>
    <trip id="2" depart="1.00" from="-25" to="7"/>
    <trip id="3" depart="2.00" from="-222" to="224"/>
    <trip id="4" depart="2.00" from="-25" to="11"/>
    <trip id="5" depart="3.00" from="-7" to="224"/>
    <trip id="6" depart="4.00" from="-222" to="25"/>
    <trip id="7" depart="5.00" from="-64" to="332"/>
    <trip id="8" depart="5.00" from="-222" to="7"/>
    <trip id="9" depart="5.00" from="-332" to="11"/>
    <trip id="10" depart="5.00" from="-64" to="64"/>
    <trip id="11" depart="6.00" from="-224" to="64"/>
    <trip id="12" depart="6.00" from="-64" to="332"/>
    <trip id="13" depart="7.00" from="-332" to="332"/>
    <trip id="14" depart="8.00" from="-224" to="25"/>
    <trip id="15" depart="8.00" from="-25" to="7"/>
    <trip id="16" depart="8.00" from="-7" to="222"/>
    <trip id="17" depart="9.00" from="-11" to="7"/>
    <trip id="18" depart="9.00" from="-25" to="11"/>
    <trip id="19" depart="10.00" from="-220" to="220"/>
    <trip id="20" depart="10.00" from="-220" to="64"/>
    <trip id="21" depart="11.00" from="-25" to="25"/>
    <trip id="22" depart="11.00" from="-11" to="7"/>
    <trip id="23" depart="11.00" from="-11" to="64"/>
    <trip id="24" depart="13.00" from="-224" to="64"/>
    <trip id="25" depart="14.00" from="-64" to="64"/>
    <trip id="26" depart="16.00" from="-332" to="224"/>
    <trip id="27" depart="17.00" from="-222" to="332"/>
    <trip id="28" depart="17.00" from="-11" to="7"/>
    <trip id="29" depart="18.00" from="-64" to="222"/>
    <trip id="30" depart="18.00" from="-224" to="7"/>
    <trip id="31" depart="19.00" from="-25" to="11"/>
    <trip id="32" depart="20.00" from="-11" to="7"/>
    <trip id="33" depart="20.00" from="-7" to="7"/>
    <trip id="34" depart="21.00" from="-25" to="332"/>
    <trip id="35" depart="22.00" from="-220" to="7"/>
    <trip id="36" depart="23.00" from="-64" to="220"/>
    <trip id="37" depart="23.00" from="-220" to="220"/>
    <trip id="38" depart="24.00" from="-64" to="11"/>
    <trip id="39" depart="24.00" from="-25" to="222"/>
    <trip id="40" depart="25.00" from="-332" to="64"/>
    <trip id="41" depart="26.00" from="-11" to="64"/>
    <trip id="42" depart="27.00" from="-332" to="222"/>
    <trip id="43" depart="27.00" from="-220" to="220"/>
    <trip id="44" depart="27.00" from="-220" to="7"/>
    <trip id="45" depart="28.00" from="-7" to="25"/>
    <trip id="46" depart="28.00" from="-220" to="7"/>
    <trip id="47" depart="28.00" from="-7" to="332"/>
    <trip id="48" depart="29.00" from="-222" to="222"/>
    <trip id="49" depart="30.00" from="-220" to="64"/>
    <trip id="50" depart="30.00" from="-11" to="332"/>
    <trip id="51" depart="31.00" from="-222" to="224"/>
    <trip id="52" depart="32.00" from="-220" to="11"/>
    <trip id="53" depart="33.00" from="-11" to="224"/>
    <trip id="54" depart="33.00" from="-220" to="11"/>
    <trip id="55" depart="34.00" from="-11" to="220"/>
    <trip id="56" depart="35.00" from="-25" to="25"/>
    <trip id="57" depart="36.00" from="-25" to="11"/>
    <trip id="58" depart="37.00" from="-332" to="220"/>
    <trip id="59" depart="37.00" from="-7" to="11"/>
    <trip id="60" depart="37.00" from="-11" to="11"/>
    <trip id="61" depart="39.00" from="-25" to="220"/>
    <trip id="62" depart="40.00" from="-25" to="224"/>
    <trip id="63" depart="40.00" from="-332" to="25"/>
    <trip id="64" depart="42.00" from="-11" to="64"/>
    <trip id="65" depart="42.00" from="-7" to="7"/>
    <trip id="66" depart="43.00" from="-222" to="222"/>
    <trip id="67" depart="46.00" from="-224" to="224"/>
    <trip id="68" depart="47.00" from="-222" to="332"/>
    <trip id="69" depart="47.00" from="-222" to="222"/>
    <trip id="70" depart="48.00" from="-64" to="64"/>
    <trip id="71" depart="48.00" from="-222" to="222"/>
    <trip id="72" depart="48.00" from="-224" to="224"/>
    <trip id="73" depart="49.00" from="-220" to="220"/>
    <trip id="74" depart="49.00" from="-224" to="224"/>
    <trip id="75" depart="49.00" from="-11" to="11"/>
    <trip id="76" depart="50.00" from="-224" to="332"/>
    <trip id="77" depart="50.00" from="-64" to="222"/>
    <trip id="78" depart="51.00" from="-220" to="64"/>
    <trip id="79" depart="52.00" from="-220" to="220"/>
    <trip id="80" depart="53.00" from="-222" to="222"/>
    <trip id="81" depart="53.00" from="-7" to="11"/>
    <trip id="82" depart="53.00" from="-224" to="25"/>
    <trip id="83" depart="54.00" from="-220" to="332"/>
    <trip id="84" depart="56.00" from="-64" to="7"/>
    <trip id="85" depart="56.00" from="-224" to="64"/>
    <trip id="86" depart="56.00" from="-224" to="11"/>
    <trip id="87" depart="60.00" from="-220" to="64"/>
    <trip id="88" depart="62.00" from="-220" to="11"/>
    <trip id="89" depart="62.00" from="-11" to="220"/>
    <trip id="90" depart="63.00" from="-332" to="224"/>
    <trip id="91" depart="64.00" from="-64" to="64"/>
    <trip id="92" depart="65.00" from="-11" to="220"/>
    <trip id="93" depart="65.00" from="-222" to="25"/>
    <trip id="94" depart="66.00" from="-220" to="222"/>
    <trip id="95" depart="66.00" from="-7" to="64"/>
    <trip id="96" depart="66.00" from="-7" to="64"/>
    <trip id="97" depart="67.00" from="-11" to="11"/>
    <trip id="98" depart="68.00" from="-25" to="332"/>
    <trip id="99" depart="68.00" from="-222" to="224"/>
    <trip id="100" depart="69.00" from="-7" to="25"/>
    <trip id="101" depart="70.00" from="-332" to="224"/>
    <trip id="102" depart="70.00" from="-222" to="332"/>
    <trip id="103" depart="71.00" from="-11" to="222"/>
    <trip id="104" depart="75.00" from="-7" to="222"/>
    <trip id="105" depart="75.00" from="-224" to="7"/>
    <trip id="106" depart="76.00" from="-222" to="64"/>
    <trip id="107" depart="76.00" from="-7" to="7"/>
    <trip id="108" depart="76.00" from="-332" to="25"/>
    <trip id="109" depart="78.00" from="-222" to="11"/>
    <trip id="110" depart="79.00" from="-7" to="220"/>
    <trip id="111" depart="79.00" from="-25" to="7"/>
    <trip id="112" depart="81.00" from="-220" to="7"/>
    <trip id="113" depart="82.00" from="-332" to="11"/>
    <trip id="114" depart="83.00" from="-220" to="222"/>
    <trip id="115" depart="84.00" from="-224" to="224"/>
    <trip id="116" depart="85.00" from="-224" to="220"/>
    <trip id="117" depart="85.00" from="-11" to="25"/>
    <trip id="118" depart="85.00" from="-64" to="64"/>
    <trip id="119" depart="85.00" from="-222" to="25"/>
    <trip id="120" depart="87.00" from="-332" to="25"/>
    <trip id="121" depart="88.00" from="-222" to="332"/>
    <trip id="122" depart="89.00" from="-224" to="11"/>
    <trip id="123" depart="89.00" from="-25" to="224"/>
    <trip id="124" depart="90.00" from="-220" to="11"/>
    <trip id="125" depart="91.00" from="-7" to="7"/>
    <trip id="126" depart="94.00" from="-25" to="25"/>
    <trip id="127" depart="94.00" from="-224" to="64"/>
    <trip id="128" depart="95.00" from="-25" to="224"/>
    <trip id="129" depart="96.00" from="-11" to="7"/>
    <trip id="130" depart="98.00" from="-222" to="224"/>
    <trip id="131" depart="98.00" from="-7" to="7"/>
    <trip id="132" depart="98.00" from="-25" to="224"/>
    <trip id="133" depart="99.00" from="-332" to="7"/>
    <trip id="134" depart="101.00" from="-222" to="7"/>
    <trip id="135" depart="103.00" from="-25" to="220"/>
    <trip id="136" depart="103.00" from="-25" to="222"/>
    <trip id="137" depart="103.00" from="-64" to="224"/>
    <trip id="138" depart="104.00" from="-64" to="222"/>
    <trip id="139" depart="107.00" from="-220" to="224"/>
    <trip id="140" depart="108.00" from="-64" to="11"/>
    <trip id="141" depart="109.00" from="-25" to="220"/>
    <trip id="142" depart="112.00" from="-224" to="222"/>
    <trip id="143" depart="112.00" from="-224" to="222"/>
    <trip id="144" depart="112.00" from="-222" to="64"/>
    <trip id="145" depart="113.00" from="-332" to="222"/>
    <trip id="146" depart="114.00" from="-222" to="224"/>
    <trip id="147" depart="114.00" from="-64" to="25"/>
    <trip id="148" depart="114.00" from="-11" to="25"/>
    <trip id="149" depart="116.00" from="-222" to="7"/>
    <trip id="150" depart="117.00" from="-222" to="25"/>
    <trip id="151" depart="117.00" from="-332" to="332"/>
    <trip id="152" depart="118.00" from="-332" to="224"/>
    <trip id="153" depart="119.00" from="-224" to="7"/>
    <trip id="154" depart="120.00" from="-11" to="224"/>
    <trip id="155" depart="121.00" from="-224" to="7"/>
    <trip id="156" depart="122.00" from="-7" to="25"/>
    <trip id="157" depart="122.00" from="-222" to="332"/>
    <trip id="158" depart="125.00" from="-224" to="332"/>
    <trip id="159" depart="125.00" from="-64" to="222"/>
    <trip id="160" depart="125.00" from="-224" to="332"/>
    <trip id="161" depart="127.00" from="-220" to="7"/>
    <trip id="162" depart="128.00" from="-220" to="220"/>
    <trip id="163" depart="129.00" from="-7" to="25"/>
    <trip id="164" depart="130.00" from="-64" to="220"/>
    <trip id="165" depart="130.00" from="-7" to="332"/>
    <trip id="166" depart="132.00" from="-220" to="7"/>
    <trip id="167" depart="132.00" from="-224" to="64"/>
    <trip id="168" depart="133.00" from="-25" to="224"/>
    <trip id="169" depart="133.00" from="-64" to="332"/>
    <trip id="170" depart="133.00" from="-224" to="64"/>
    <trip id="171" depart="134.00" from="-25" to="220"/>
    <trip id="172" depart="139.00" from="-220" to="332"/>
    <trip id="173" depart="141.00" from="-64" to="220"/>
    <trip id="174" depart="142.00" from="-64" to="332"/>
    <trip id="175" depart="143.00" from="-11" to="25"/>
    <trip id="176" depart="144.00" from="-11" to="64"/>
    <trip id="177" depart="144.00" from="-220" to="220"/>
    <trip id="178" depart="147.00" from="-64" to="7"/>
    <trip id="179" depart="147.00" from="-332" to="7"/>
    <trip id="180" depart="149.00" from="-11" to="25"/>
    <trip id="181" depart="149.00" from="-222" to="64"/>
    <trip id="182" depart="150.00" from="-25" to="7"/>
    <trip id="183" depart="152.00" from="-332" to="7"/>
    <trip id="184" depart="152.00" from="-332" to="332"/>
    <trip id="185" depart="153.00" from="-25" to="7"/>
</routes>
