<?xml version="1.0" encoding="UTF-8"?>
<!-- generated on 2018-06-21 21:38:28.538180 by $Id: random_trips.py 25741 2017-08-30 11:58:01Z behrisch $
  options: ./city 500 40
-->
<routes xmlns:xsi="http://www.w3.org/2001/XMLSchema-instance" xsi:noNamespaceSchemaLocation="http://sumo.dlr.de/xsd/routes_file.xsd">
    <trip id="0" depart="0.00" from="-712" to="712"/>
    <trip id="1" depart="0.00" from="-405" to="688"/>
    <trip id="2" depart="0.00" from="-393" to="904"/>
    <trip id="3" depart="1.00" from="-686" to="684"/>
    <trip id="4" depart="2.00" from="-688" to="712"/>
    <trip id="5" depart="3.00" from="-686" to="393"/>
    <trip id="6" depart="3.00" from="-688" to="405"/>
    <trip id="7" depart="3.00" from="-698" to="435"/>
    <trip id="8" depart="4.00" from="-900" to="716"/>
    <trip id="9" depart="5.00" from="-686" to="686"/>
    <trip id="10" depart="7.00" from="-686" to="435"/>
    <trip id="11" depart="8.00" from="-175" to="393"/>
    <trip id="12" depart="8.00" from="-716" to="686"/>
    <trip id="13" depart="8.00" from="-852" to="343"/>
    <trip id="14" depart="10.00" from="-734" to="704"/>
    <trip id="15" depart="11.00" from="-343" to="852"/>
    <trip id="16" depart="11.00" from="-716" to="477"/>
    <trip id="17" depart="12.00" from="-688" to="477"/>
    <trip id="18" depart="12.00" from="-712" to="405"/>
    <trip id="19" depart="12.00" from="-900" to="343"/>
    <trip id="20" depart="12.00" from="-405" to="904"/>
    <trip id="21" depart="13.00" from="-852" to="716"/>
    <trip id="22" depart="15.00" from="-900" to="175"/>
    <trip id="23" depart="16.00" from="-688" to="904"/>
    <trip id="24" depart="16.00" from="-435" to="904"/>
    <trip id="25" depart="16.00" from="-686" to="704"/>
    <trip id="26" depart="18.00" from="-904" to="698"/>
    <trip id="27" depart="18.00" from="-343" to="734"/>
    <trip id="28" depart="19.00" from="-343" to="175"/>
    <trip id="29" depart="19.00" from="-844" to="698"/>
    <trip id="30" depart="19.00" from="-900" to="852"/>
    <trip id="31" depart="20.00" from="-698" to="477"/>
    <trip id="32" depart="20.00" from="-844" to="688"/>
    <trip id="33" depart="20.00" from="-734" to="175"/>
    <trip id="34" depart="20.00" from="-734" to="698"/>
    <trip id="35" depart="21.00" from="-852" to="904"/>
    <trip id="36" depart="21.00" from="-712" to="716"/>
    <trip id="37" depart="22.00" from="-852" to="904"/>
    <trip id="38" depart="22.00" from="-844" to="435"/>
    <trip id="39" depart="26.00" from="-393" to="712"/>
    <trip id="40" depart="27.00" from="-734" to="686"/>
    <trip id="41" depart="29.00" from="-900" to="684"/>
    <trip id="42" depart="30.00" from="-712" to="900"/>
    <trip id="43" depart="30.00" from="-477" to="686"/>
    <trip id="44" depart="31.00" from="-435" to="852"/>
    <trip id="45" depart="32.00" from="-716" to="900"/>
    <trip id="46" depart="33.00" from="-712" to="704"/>
    <trip id="47" depart="33.00" from="-716" to="175"/>
    <trip id="48" depart="33.00" from="-405" to="477"/>
    <trip id="49" depart="34.00" from="-844" to="844"/>
    <trip id="50" depart="35.00" from="-852" to="688"/>
    <trip id="51" depart="36.00" from="-686" to="904"/>
    <trip id="52" depart="37.00" from="-343" to="343"/>
    <trip id="53" depart="37.00" from="-904" to="688"/>
    <trip id="54" depart="39.00" from="-734" to="477"/>
    <trip id="55" depart="40.00" from="-734" to="698"/>
    <trip id="56" depart="40.00" from="-688" to="684"/>
    <trip id="57" depart="40.00" from="-698" to="712"/>
    <trip id="58" depart="40.00" from="-734" to="175"/>
    <trip id="59" depart="41.00" from="-343" to="904"/>
    <trip id="60" depart="41.00" from="-704" to="698"/>
    <trip id="61" depart="42.00" from="-343" to="175"/>
    <trip id="62" depart="42.00" from="-175" to="393"/>
    <trip id="63" depart="43.00" from="-704" to="900"/>
    <trip id="64" depart="44.00" from="-900" to="393"/>
    <trip id="65" depart="44.00" from="-688" to="175"/>
    <trip id="66" depart="46.00" from="-734" to="852"/>
    <trip id="67" depart="46.00" from="-435" to="716"/>
    <trip id="68" depart="46.00" from="-435" to="844"/>
    <trip id="69" depart="46.00" from="-712" to="716"/>
    <trip id="70" depart="46.00" from="-734" to="686"/>
    <trip id="71" depart="46.00" from="-435" to="844"/>
    <trip id="72" depart="48.00" from="-852" to="686"/>
    <trip id="73" depart="50.00" from="-712" to="435"/>
    <trip id="74" depart="50.00" from="-684" to="686"/>
    <trip id="75" depart="51.00" from="-393" to="852"/>
    <trip id="76" depart="51.00" from="-698" to="477"/>
    <trip id="77" depart="51.00" from="-704" to="904"/>
    <trip id="78" depart="52.00" from="-405" to="684"/>
    <trip id="79" depart="52.00" from="-686" to="686"/>
    <trip id="80" depart="53.00" from="-393" to="852"/>
    <trip id="81" depart="54.00" from="-435" to="405"/>
    <trip id="82" depart="54.00" from="-734" to="698"/>
    <trip id="83" depart="56.00" from="-844" to="704"/>
    <trip id="84" depart="56.00" from="-900" to="904"/>
    <trip id="85" depart="56.00" from="-844" to="343"/>
    <trip id="86" depart="56.00" from="-343" to="900"/>
    <trip id="87" depart="58.00" from="-343" to="712"/>
    <trip id="88" depart="59.00" from="-686" to="435"/>
    <trip id="89" depart="59.00" from="-405" to="716"/>
    <trip id="90" depart="60.00" from="-393" to="688"/>
    <trip id="91" depart="62.00" from="-704" to="343"/>
    <trip id="92" depart="62.00" from="-698" to="686"/>
    <trip id="93" depart="62.00" from="-477" to="734"/>
    <trip id="94" depart="63.00" from="-734" to="688"/>
    <trip id="95" depart="66.00" from="-712" to="844"/>
    <trip id="96" depart="66.00" from="-844" to="734"/>
    <trip id="97" depart="66.00" from="-477" to="900"/>
    <trip id="98" depart="67.00" from="-686" to="698"/>
    <trip id="99" depart="67.00" from="-734" to="684"/>
    <trip id="100" depart="67.00" from="-405" to="688"/>
    <trip id="101" depart="67.00" from="-477" to="686"/>
    <trip id="102" depart="68.00" from="-852" to="698"/>
    <trip id="103" depart="68.00" from="-844" to="477"/>
    <trip id="104" depart="69.00" from="-704" to="904"/>
    <trip id="105" depart="69.00" from="-844" to="904"/>
    <trip id="106" depart="70.00" from="-698" to="405"/>
    <trip id="107" depart="71.00" from="-712" to="844"/>
    <trip id="108" depart="71.00" from="-712" to="393"/>
    <trip id="109" depart="72.00" from="-844" to="477"/>
    <trip id="110" depart="72.00" from="-477" to="734"/>
    <trip id="111" depart="73.00" from="-684" to="343"/>
    <trip id="112" depart="73.00" from="-688" to="477"/>
    <trip id="113" depart="74.00" from="-684" to="393"/>
    <trip id="114" depart="75.00" from="-716" to="688"/>
    <trip id="115" depart="75.00" from="-716" to="844"/>
    <trip id="116" depart="75.00" from="-393" to="900"/>
    <trip id="117" depart="76.00" from="-844" to="716"/>
    <trip id="118" depart="77.00" from="-686" to="900"/>
    <trip id="119" depart="77.00" from="-684" to="688"/>
    <trip id="120" depart="77.00" from="-716" to="904"/>
    <trip id="121" depart="77.00" from="-900" to="698"/>
    <trip id="122" depart="77.00" from="-844" to="393"/>
    <trip id="123" depart="78.00" from="-704" to="844"/>
    <trip id="124" depart="79.00" from="-712" to="716"/>
    <trip id="125" depart="79.00" from="-900" to="405"/>
    <trip id="126" depart="79.00" from="-704" to="716"/>
    <trip id="127" depart="80.00" from="-716" to="900"/>
    <trip id="128" depart="80.00" from="-716" to="716"/>
    <trip id="129" depart="80.00" from="-712" to="734"/>
    <trip id="130" depart="81.00" from="-852" to="852"/>
    <trip id="131" depart="81.00" from="-734" to="477"/>
    <trip id="132" depart="82.00" from="-904" to="175"/>
    <trip id="133" depart="82.00" from="-686" to="686"/>
    <trip id="134" depart="82.00" from="-704" to="684"/>
    <trip id="135" depart="83.00" from="-734" to="343"/>
    <trip id="136" depart="84.00" from="-405" to="844"/>
    <trip id="137" depart="84.00" from="-852" to="704"/>
    <trip id="138" depart="84.00" from="-343" to="698"/>
    <trip id="139" depart="85.00" from="-175" to="435"/>
    <trip id="140" depart="86.00" from="-686" to="716"/>
    <trip id="141" depart="89.00" from="-904" to="698"/>
    <trip id="142" depart="90.00" from="-343" to="698"/>
    <trip id="143" depart="91.00" from="-716" to="405"/>
    <trip id="144" depart="92.00" from="-904" to="686"/>
    <trip id="145" depart="93.00" from="-688" to="477"/>
    <trip id="146" depart="95.00" from="-343" to="435"/>
    <trip id="147" depart="96.00" from="-343" to="688"/>
    <trip id="148" depart="96.00" from="-734" to="904"/>
    <trip id="149" depart="96.00" from="-716" to="343"/>
    <trip id="150" depart="96.00" from="-904" to="900"/>
    <trip id="151" depart="97.00" from="-686" to="175"/>
    <trip id="152" depart="101.00" from="-716" to="844"/>
    <trip id="153" depart="101.00" from="-904" to="393"/>
    <trip id="154" depart="102.00" from="-175" to="704"/>
    <trip id="155" depart="102.00" from="-734" to="393"/>
    <trip id="156" depart="102.00" from="-175" to="477"/>
    <trip id="157" depart="104.00" from="-477" to="684"/>
    <trip id="158" depart="106.00" from="-904" to="686"/>
    <trip id="159" depart="106.00" from="-698" to="393"/>
    <trip id="160" depart="107.00" from="-698" to="435"/>
    <trip id="161" depart="107.00" from="-477" to="435"/>
    <trip id="162" depart="108.00" from="-343" to="688"/>
    <trip id="163" depart="108.00" from="-712" to="900"/>
    <trip id="164" depart="109.00" from="-712" to="904"/>
    <trip id="165" depart="110.00" from="-405" to="435"/>
    <trip id="166" depart="110.00" from="-852" to="175"/>
    <trip id="167" depart="110.00" from="-852" to="405"/>
    <trip id="168" depart="110.00" from="-844" to="343"/>
    <trip id="169" depart="111.00" from="-435" to="712"/>
    <trip id="170" depart="113.00" from="-686" to="704"/>
    <trip id="171" depart="113.00" from="-712" to="904"/>
    <trip id="172" depart="113.00" from="-852" to="900"/>
    <trip id="173" depart="113.00" from="-900" to="477"/>
    <trip id="174" depart="114.00" from="-852" to="716"/>
    <trip id="175" depart="114.00" from="-716" to="343"/>
    <trip id="176" depart="116.00" from="-852" to="684"/>
    <trip id="177" depart="117.00" from="-684" to="900"/>
    <trip id="178" depart="117.00" from="-734" to="686"/>
    <trip id="179" depart="119.00" from="-712" to="900"/>
    <trip id="180" depart="120.00" from="-684" to="343"/>
    <trip id="181" depart="120.00" from="-712" to="393"/>
    <trip id="182" depart="120.00" from="-734" to="405"/>
    <trip id="183" depart="120.00" from="-852" to="435"/>
    <trip id="184" depart="121.00" from="-175" to="734"/>
    <trip id="185" depart="122.00" from="-405" to="688"/>
    <trip id="186" depart="123.00" from="-704" to="852"/>
    <trip id="187" depart="123.00" from="-684" to="704"/>
    <trip id="188" depart="124.00" from="-844" to="684"/>
    <trip id="189" depart="124.00" from="-688" to="712"/>
    <trip id="190" depart="125.00" from="-852" to="435"/>
    <trip id="191" depart="126.00" from="-393" to="904"/>
    <trip id="192" depart="127.00" from="-734" to="716"/>
    <trip id="193" depart="128.00" from="-712" to="852"/>
    <trip id="194" depart="128.00" from="-435" to="734"/>
    <trip id="195" depart="129.00" from="-688" to="686"/>
    <trip id="196" depart="130.00" from="-734" to="435"/>
    <trip id="197" depart="130.00" from="-712" to="477"/>
    <trip id="198" depart="131.00" from="-716" to="405"/>
    <trip id="199" depart="133.00" from="-688" to="704"/>
    <trip id="200" depart="133.00" from="-900" to="716"/>
    <trip id="201" depart="133.00" from="-686" to="477"/>
    <trip id="202" depart="133.00" from="-175" to="900"/>
    <trip id="203" depart="134.00" from="-175" to="852"/>
    <trip id="204" depart="134.00" from="-716" to="684"/>
    <trip id="205" depart="134.00" from="-844" to="405"/>
    <trip id="206" depart="134.00" from="-688" to="716"/>
    <trip id="207" depart="135.00" from="-712" to="704"/>
    <trip id="208" depart="135.00" from="-712" to="904"/>
    <trip id="209" depart="136.00" from="-343" to="852"/>
    <trip id="210" depart="138.00" from="-734" to="698"/>
    <trip id="211" depart="139.00" from="-734" to="175"/>
    <trip id="212" depart="140.00" from="-852" to="405"/>
    <trip id="213" depart="140.00" from="-716" to="698"/>
    <trip id="214" depart="142.00" from="-688" to="343"/>
    <trip id="215" depart="143.00" from="-688" to="393"/>
    <trip id="216" depart="144.00" from="-844" to="698"/>
    <trip id="217" depart="145.00" from="-844" to="686"/>
    <trip id="218" depart="146.00" from="-684" to="435"/>
    <trip id="219" depart="147.00" from="-734" to="712"/>
    <trip id="220" depart="148.00" from="-698" to="393"/>
    <trip id="221" depart="148.00" from="-175" to="698"/>
    <trip id="222" depart="148.00" from="-684" to="904"/>
    <trip id="223" depart="153.00" from="-904" to="704"/>
    <trip id="224" depart="154.00" from="-900" to="844"/>
    <trip id="225" depart="155.00" from="-686" to="405"/>
    <trip id="226" depart="155.00" from="-900" to="844"/>
    <trip id="227" depart="155.00" from="-477" to="844"/>
    <trip id="228" depart="155.00" from="-405" to="904"/>
    <trip id="229" depart="156.00" from="-852" to="904"/>
    <trip id="230" depart="157.00" from="-343" to="698"/>
    <trip id="231" depart="158.00" from="-698" to="844"/>
    <trip id="232" depart="159.00" from="-698" to="844"/>
    <trip id="233" depart="159.00" from="-343" to="698"/>
    <trip id="234" depart="163.00" from="-904" to="904"/>
    <trip id="235" depart="163.00" from="-716" to="393"/>
    <trip id="236" depart="163.00" from="-477" to="712"/>
    <trip id="237" depart="163.00" from="-477" to="686"/>
    <trip id="238" depart="164.00" from="-175" to="852"/>
    <trip id="239" depart="164.00" from="-435" to="393"/>
    <trip id="240" depart="164.00" from="-712" to="698"/>
    <trip id="241" depart="165.00" from="-844" to="904"/>
    <trip id="242" depart="165.00" from="-435" to="704"/>
    <trip id="243" depart="165.00" from="-477" to="704"/>
    <trip id="244" depart="165.00" from="-704" to="704"/>
    <trip id="245" depart="165.00" from="-712" to="712"/>
    <trip id="246" depart="166.00" from="-704" to="844"/>
    <trip id="247" depart="166.00" from="-712" to="405"/>
    <trip id="248" depart="166.00" from="-684" to="688"/>
    <trip id="249" depart="168.00" from="-704" to="844"/>
    <trip id="250" depart="168.00" from="-900" to="734"/>
    <trip id="251" depart="169.00" from="-343" to="904"/>
    <trip id="252" depart="169.00" from="-716" to="435"/>
    <trip id="253" depart="170.00" from="-435" to="844"/>
    <trip id="254" depart="170.00" from="-405" to="343"/>
    <trip id="255" depart="171.00" from="-698" to="698"/>
    <trip id="256" depart="172.00" from="-734" to="684"/>
    <trip id="257" depart="174.00" from="-686" to="405"/>
    <trip id="258" depart="175.00" from="-712" to="343"/>
    <trip id="259" depart="176.00" from="-712" to="704"/>
    <trip id="260" depart="177.00" from="-688" to="175"/>
    <trip id="261" depart="177.00" from="-698" to="684"/>
    <trip id="262" depart="177.00" from="-712" to="393"/>
    <trip id="263" depart="177.00" from="-435" to="686"/>
    <trip id="264" depart="179.00" from="-405" to="435"/>
    <trip id="265" depart="179.00" from="-704" to="686"/>
    <trip id="266" depart="180.00" from="-686" to="716"/>
    <trip id="267" depart="183.00" from="-686" to="712"/>
    <trip id="268" depart="183.00" from="-686" to="405"/>
    <trip id="269" depart="183.00" from="-343" to="477"/>
    <trip id="270" depart="185.00" from="-716" to="852"/>
    <trip id="271" depart="185.00" from="-712" to="712"/>
    <trip id="272" depart="186.00" from="-175" to="704"/>
    <trip id="273" depart="186.00" from="-435" to="852"/>
    <trip id="274" depart="186.00" from="-900" to="175"/>
    <trip id="275" depart="187.00" from="-435" to="734"/>
    <trip id="276" depart="188.00" from="-686" to="712"/>
    <trip id="277" depart="188.00" from="-852" to="712"/>
    <trip id="278" depart="188.00" from="-716" to="900"/>
    <trip id="279" depart="190.00" from="-904" to="712"/>
    <trip id="280" depart="190.00" from="-405" to="435"/>
    <trip id="281" depart="190.00" from="-904" to="393"/>
    <trip id="282" depart="190.00" from="-904" to="900"/>
    <trip id="283" depart="191.00" from="-686" to="716"/>
    <trip id="284" depart="192.00" from="-734" to="698"/>
    <trip id="285" depart="192.00" from="-704" to="900"/>
    <trip id="286" depart="193.00" from="-852" to="477"/>
    <trip id="287" depart="195.00" from="-734" to="716"/>
    <trip id="288" depart="195.00" from="-904" to="175"/>
    <trip id="289" depart="196.00" from="-716" to="688"/>
    <trip id="290" depart="196.00" from="-477" to="712"/>
    <trip id="291" depart="196.00" from="-698" to="716"/>
    <trip id="292" depart="197.00" from="-698" to="686"/>
    <trip id="293" depart="197.00" from="-712" to="686"/>
    <trip id="294" depart="197.00" from="-343" to="852"/>
    <trip id="295" depart="198.00" from="-712" to="684"/>
    <trip id="296" depart="199.00" from="-405" to="712"/>
    <trip id="297" depart="200.00" from="-852" to="405"/>
    <trip id="298" depart="200.00" from="-904" to="904"/>
    <trip id="299" depart="202.00" from="-712" to="393"/>
    <trip id="300" depart="202.00" from="-175" to="704"/>
    <trip id="301" depart="205.00" from="-844" to="393"/>
    <trip id="302" depart="206.00" from="-175" to="405"/>
    <trip id="303" depart="206.00" from="-405" to="852"/>
    <trip id="304" depart="207.00" from="-852" to="716"/>
    <trip id="305" depart="207.00" from="-393" to="698"/>
    <trip id="306" depart="207.00" from="-698" to="904"/>
    <trip id="307" depart="208.00" from="-698" to="688"/>
    <trip id="308" depart="209.00" from="-900" to="393"/>
    <trip id="309" depart="211.00" from="-175" to="852"/>
    <trip id="310" depart="211.00" from="-900" to="844"/>
    <trip id="311" depart="211.00" from="-844" to="686"/>
    <trip id="312" depart="212.00" from="-716" to="688"/>
    <trip id="313" depart="213.00" from="-712" to="435"/>
    <trip id="314" depart="216.00" from="-435" to="716"/>
    <trip id="315" depart="217.00" from="-405" to="716"/>
    <trip id="316" depart="217.00" from="-704" to="688"/>
    <trip id="317" depart="217.00" from="-684" to="900"/>
    <trip id="318" depart="218.00" from="-852" to="684"/>
    <trip id="319" depart="218.00" from="-844" to="900"/>
    <trip id="320" depart="218.00" from="-900" to="852"/>
    <trip id="321" depart="219.00" from="-393" to="716"/>
    <trip id="322" depart="220.00" from="-852" to="698"/>
    <trip id="323" depart="220.00" from="-734" to="900"/>
    <trip id="324" depart="221.00" from="-175" to="684"/>
    <trip id="325" depart="221.00" from="-734" to="686"/>
    <trip id="326" depart="222.00" from="-900" to="686"/>
    <trip id="327" depart="225.00" from="-844" to="704"/>
    <trip id="328" depart="226.00" from="-686" to="435"/>
    <trip id="329" depart="226.00" from="-686" to="686"/>
    <trip id="330" depart="227.00" from="-684" to="852"/>
    <trip id="331" depart="228.00" from="-698" to="688"/>
    <trip id="332" depart="228.00" from="-343" to="852"/>
    <trip id="333" depart="228.00" from="-686" to="704"/>
    <trip id="334" depart="229.00" from="-704" to="684"/>
    <trip id="335" depart="229.00" from="-716" to="844"/>
    <trip id="336" depart="230.00" from="-852" to="734"/>
    <trip id="337" depart="231.00" from="-852" to="684"/>
    <trip id="338" depart="231.00" from="-852" to="175"/>
    <trip id="339" depart="231.00" from="-393" to="686"/>
    <trip id="340" depart="232.00" from="-704" to="435"/>
    <trip id="341" depart="234.00" from="-343" to="688"/>
    <trip id="342" depart="236.00" from="-343" to="704"/>
    <trip id="343" depart="236.00" from="-904" to="734"/>
    <trip id="344" depart="236.00" from="-688" to="684"/>
    <trip id="345" depart="237.00" from="-734" to="852"/>
    <trip id="346" depart="237.00" from="-405" to="734"/>
    <trip id="347" depart="237.00" from="-900" to="688"/>
    <trip id="348" depart="238.00" from="-852" to="477"/>
    <trip id="349" depart="238.00" from="-343" to="734"/>
    <trip id="350" depart="238.00" from="-852" to="175"/>
    <trip id="351" depart="238.00" from="-686" to="343"/>
    <trip id="352" depart="239.00" from="-686" to="704"/>
    <trip id="353" depart="240.00" from="-852" to="698"/>
    <trip id="354" depart="241.00" from="-405" to="716"/>
    <trip id="355" depart="241.00" from="-393" to="698"/>
    <trip id="356" depart="242.00" from="-900" to="844"/>
    <trip id="357" depart="242.00" from="-734" to="405"/>
    <trip id="358" depart="242.00" from="-684" to="405"/>
    <trip id="359" depart="243.00" from="-712" to="704"/>
    <trip id="360" depart="244.00" from="-684" to="734"/>
    <trip id="361" depart="245.00" from="-686" to="686"/>
    <trip id="362" depart="245.00" from="-698" to="844"/>
    <trip id="363" depart="246.00" from="-712" to="698"/>
    <trip id="364" depart="246.00" from="-435" to="900"/>
    <trip id="365" depart="246.00" from="-405" to="844"/>
    <trip id="366" depart="247.00" from="-852" to="175"/>
    <trip id="367" depart="247.00" from="-712" to="435"/>
    <trip id="368" depart="248.00" from="-844" to="477"/>
    <trip id="369" depart="248.00" from="-900" to="405"/>
    <trip id="370" depart="249.00" from="-393" to="704"/>
    <trip id="371" depart="249.00" from="-688" to="844"/>
    <trip id="372" depart="250.00" from="-684" to="900"/>
    <trip id="373" depart="250.00" from="-405" to="343"/>
    <trip id="374" depart="250.00" from="-904" to="684"/>
    <trip id="375" depart="251.00" from="-393" to="477"/>
    <trip id="376" depart="252.00" from="-900" to="710"/>
    <trip id="377" depart="252.00" from="-844" to="904"/>
    <trip id="378" depart="253.00" from="-852" to="405"/>
    <trip id="379" depart="255.00" from="-704" to="435"/>
    <trip id="380" depart="255.00" from="-900" to="904"/>
    <trip id="381" depart="255.00" from="-405" to="734"/>
    <trip id="382" depart="255.00" from="-684" to="844"/>
    <trip id="383" depart="256.00" from="-686" to="175"/>
    <trip id="384" depart="256.00" from="-712" to="435"/>
    <trip id="385" depart="258.00" from="-684" to="688"/>
    <trip id="386" depart="260.00" from="-900" to="393"/>
    <trip id="387" depart="260.00" from="-844" to="405"/>
    <trip id="388" depart="263.00" from="-844" to="435"/>
    <trip id="389" depart="263.00" from="-704" to="175"/>
    <trip id="390" depart="263.00" from="-405" to="477"/>
    <trip id="391" depart="264.00" from="-704" to="698"/>
    <trip id="392" depart="264.00" from="-852" to="852"/>
    <trip id="393" depart="264.00" from="-844" to="175"/>
    <trip id="394" depart="265.00" from="-698" to="435"/>
    <trip id="395" depart="267.00" from="-698" to="686"/>
    <trip id="396" depart="269.00" from="-900" to="175"/>
    <trip id="397" depart="270.00" from="-734" to="716"/>
    <trip id="398" depart="270.00" from="-844" to="704"/>
    <trip id="399" depart="271.00" from="-904" to="734"/>
    <trip id="400" depart="271.00" from="-716" to="393"/>
    <trip id="401" depart="273.00" from="-852" to="175"/>
    <trip id="402" depart="276.00" from="-477" to="686"/>
    <trip id="403" depart="277.00" from="-900" to="393"/>
    <trip id="404" depart="277.00" from="-686" to="688"/>
    <trip id="405" depart="280.00" from="-844" to="688"/>
    <trip id="406" depart="282.00" from="-435" to="844"/>
    <trip id="407" depart="283.00" from="-734" to="684"/>
    <trip id="408" depart="284.00" from="-393" to="477"/>
    <trip id="409" depart="284.00" from="-900" to="704"/>
    <trip id="410" depart="284.00" from="-435" to="904"/>
    <trip id="411" depart="285.00" from="-688" to="343"/>
    <trip id="412" depart="285.00" from="-405" to="393"/>
    <trip id="413" depart="286.00" from="-852" to="734"/>
    <trip id="414" depart="286.00" from="-704" to="904"/>
    <trip id="415" depart="287.00" from="-684" to="712"/>
    <trip id="416" depart="289.00" from="-175" to="477"/>
    <trip id="417" depart="290.00" from="-435" to="900"/>
    <trip id="418" depart="291.00" from="-405" to="175"/>
    <trip id="419" depart="291.00" from="-435" to="686"/>
    <trip id="420" depart="292.00" from="-405" to="343"/>
    <trip id="421" depart="292.00" from="-405" to="405"/>
    <trip id="422" depart="292.00" from="-712" to="734"/>
    <trip id="423" depart="294.00" from="-716" to="686"/>
    <trip id="424" depart="294.00" from="-844" to="852"/>
    <trip id="425" depart="295.00" from="-393" to="900"/>
    <trip id="426" depart="295.00" from="-712" to="900"/>
    <trip id="427" depart="296.00" from="-704" to="688"/>
    <trip id="428" depart="296.00" from="-716" to="686"/>
    <trip id="429" depart="298.00" from="-175" to="477"/>
    <trip id="430" depart="298.00" from="-393" to="477"/>
    <trip id="431" depart="300.00" from="-698" to="704"/>
    <trip id="432" depart="300.00" from="-716" to="343"/>
    <trip id="433" depart="302.00" from="-686" to="175"/>
    <trip id="434" depart="303.00" from="-175" to="900"/>
    <trip id="435" depart="303.00" from="-716" to="844"/>
    <trip id="436" depart="304.00" from="-405" to="844"/>
    <trip id="437" depart="304.00" from="-698" to="405"/>
    <trip id="438" depart="305.00" from="-712" to="343"/>
    <trip id="439" depart="305.00" from="-175" to="844"/>
    <trip id="440" depart="305.00" from="-343" to="716"/>
    <trip id="441" depart="307.00" from="-734" to="698"/>
    <trip id="442" depart="307.00" from="-844" to="852"/>
    <trip id="443" depart="308.00" from="-900" to="684"/>
    <trip id="444" depart="312.00" from="-477" to="698"/>
    <trip id="445" depart="312.00" from="-698" to="393"/>
    <trip id="446" depart="314.00" from="-716" to="405"/>
    <trip id="447" depart="314.00" from="-698" to="900"/>
    <trip id="448" depart="315.00" from="-704" to="844"/>
    <trip id="449" depart="315.00" from="-904" to="477"/>
    <trip id="450" depart="316.00" from="-477" to="716"/>
    <trip id="451" depart="317.00" from="-477" to="734"/>
    <trip id="452" depart="317.00" from="-712" to="852"/>
    <trip id="453" depart="318.00" from="-686" to="716"/>
    <trip id="454" depart="319.00" from="-852" to="852"/>
    <trip id="455" depart="320.00" from="-343" to="686"/>
    <trip id="456" depart="320.00" from="-435" to="704"/>
    <trip id="457" depart="320.00" from="-904" to="477"/>
    <trip id="458" depart="321.00" from="-844" to="175"/>
    <trip id="459" depart="322.00" from="-393" to="477"/>
    <trip id="460" depart="323.00" from="-343" to="698"/>
    <trip id="461" depart="325.00" from="-704" to="477"/>
    <trip id="462" depart="326.00" from="-343" to="435"/>
    <trip id="463" depart="326.00" from="-477" to="704"/>
    <trip id="464" depart="326.00" from="-393" to="734"/>
    <trip id="465" depart="326.00" from="-844" to="405"/>
    <trip id="466" depart="327.00" from="-686" to="405"/>
    <trip id="467" depart="327.00" from="-175" to="904"/>
    <trip id="468" depart="327.00" from="-343" to="904"/>
    <trip id="469" depart="328.00" from="-175" to="435"/>
    <trip id="470" depart="328.00" from="-684" to="686"/>
    <trip id="471" depart="329.00" from="-405" to="904"/>
    <trip id="472" depart="329.00" from="-704" to="852"/>
    <trip id="473" depart="329.00" from="-904" to="904"/>
    <trip id="474" depart="330.00" from="-688" to="435"/>
    <trip id="475" depart="331.00" from="-698" to="852"/>
    <trip id="476" depart="331.00" from="-477" to="844"/>
    <trip id="477" depart="333.00" from="-698" to="175"/>
    <trip id="478" depart="334.00" from="-734" to="405"/>
    <trip id="479" depart="336.00" from="-712" to="686"/>
    <trip id="480" depart="337.00" from="-698" to="900"/>
    <trip id="481" depart="337.00" from="-844" to="852"/>
    <trip id="482" depart="339.00" from="-900" to="175"/>
    <trip id="483" depart="339.00" from="-852" to="904"/>
    <trip id="484" depart="339.00" from="-900" to="684"/>
    <trip id="485" depart="340.00" from="-900" to="716"/>
    <trip id="486" depart="340.00" from="-698" to="852"/>
    <trip id="487" depart="341.00" from="-684" to="686"/>
    <trip id="488" depart="342.00" from="-904" to="175"/>
    <trip id="489" depart="342.00" from="-435" to="477"/>
    <trip id="490" depart="344.00" from="-393" to="684"/>
    <trip id="491" depart="346.00" from="-716" to="175"/>
    <trip id="492" depart="346.00" from="-684" to="852"/>
    <trip id="493" depart="347.00" from="-698" to="688"/>
    <trip id="494" depart="347.00" from="-686" to="175"/>
    <trip id="495" depart="348.00" from="-844" to="688"/>
    <trip id="496" depart="350.00" from="-175" to="405"/>
    <trip id="497" depart="350.00" from="-393" to="175"/>
    <trip id="498" depart="351.00" from="-852" to="343"/>
    <trip id="499" depart="352.00" from="-405" to="900"/>
    <trip id="500" depart="355.00" from="-686" to="435"/>
    <trip id="501" depart="357.00" from="-852" to="698"/>
    <trip id="502" depart="357.00" from="-716" to="904"/>
    <trip id="503" depart="357.00" from="-704" to="900"/>
    <trip id="504" depart="359.00" from="-686" to="686"/>
    <trip id="505" depart="360.00" from="-844" to="684"/>
    <trip id="506" depart="361.00" from="-904" to="343"/>
    <trip id="507" depart="361.00" from="-716" to="712"/>
    <trip id="508" depart="362.00" from="-405" to="688"/>
    <trip id="509" depart="364.00" from="-716" to="477"/>
    <trip id="510" depart="365.00" from="-844" to="688"/>
    <trip id="511" depart="366.00" from="-435" to="716"/>
    <trip id="512" depart="366.00" from="-684" to="904"/>
    <trip id="513" depart="367.00" from="-343" to="904"/>
    <trip id="514" depart="367.00" from="-684" to="900"/>
    <trip id="515" depart="367.00" from="-477" to="734"/>