<?xml version="1.0" encoding="UTF-8"?>

<!-- generated on 11/29/17 20:00:26 by SUMO netconvert Version 0.31.0
<?xml version="1.0" encoding="UTF-8"?>

<configuration xmlns:xsi="http://www.w3.org/2001/XMLSchema-instance" xsi:noNamespaceSchemaLocation="http://sumo.dlr.de/xsd/netconvertConfiguration.xsd">

    <input>
        <type-files value="osm-urban-de.typ.xml"/>
        <osm-files value="eichstaett.osm"/>
    </input>

    <output>
        <output-file value="osmtest.net.xml"/>
    </output>

    <projection>
        <proj.utm value="true"/>
    </projection>

</configuration>
-->

<net version="0.27" xmlns:xsi="http://www.w3.org/2001/XMLSchema-instance" xsi:noNamespaceSchemaLocation="http://sumo.dlr.de/xsd/net_file.xsd">

    <location netOffset="-658084.21,-5415927.80" convBoundary="0.00,0.00,4486.57,2974.44" origBoundary="11.156879,48.875046,11.217570,48.902666" projParameter="+proj=utm +zone=32 +ellps=WGS84 +datum=WGS84 +units=m +no_defs"/>

    <type id="highway.bridleway" priority="2" numLanes="1" speed="6.94" allow="bicycle pedestrian"/>
    <type id="highway.bus_guideway" priority="5" numLanes="1" speed="13.89" allow="bus"/>
    <type id="highway.cycleway" priority="2" numLanes="1" speed="6.94" allow="bicycle"/>
    <type id="highway.footway" priority="2" numLanes="1" speed="1.39" allow="pedestrian"/>
    <type id="highway.living_street" priority="6" numLanes="1" speed="1.39"/>
    <type id="highway.motorway" priority="13" numLanes="2" speed="41.67" disallow="bicycle pedestrian" oneway="1"/>
    <type id="highway.motorway_link" priority="8" numLanes="1" speed="13.89"/>
    <type id="highway.path" priority="2" numLanes="1" speed="6.94" allow="bicycle pedestrian"/>
    <type id="highway.pedestrian" priority="5" numLanes="1" speed="1.39" allow="pedestrian"/>
    <type id="highway.primary" priority="11" numLanes="1" speed="13.89"/>
    <type id="highway.primary_link" priority="8" numLanes="1" speed="13.89"/>
    <type id="highway.residential" priority="7" numLanes="1" speed="13.89"/>
    <type id="highway.road" priority="7" numLanes="1" speed="13.89"/>
    <type id="highway.secondary" priority="10" numLanes="1" speed="13.89"/>
    <type id="highway.secondary_link" priority="8" numLanes="1" speed="13.89"/>
    <type id="highway.service" priority="5" numLanes="1" speed="13.89"/>
    <type id="highway.steps" priority="2" numLanes="1" speed="1.39" allow="pedestrian"/>
    <type id="highway.tertiary" priority="9" numLanes="1" speed="13.89"/>
    <type id="highway.track" priority="4" numLanes="1" speed="8.33" allow="bicycle pedestrian"/>
    <type id="highway.trunk" priority="12" numLanes="1" speed="13.89"/>
    <type id="highway.trunk_link" priority="8" numLanes="1" speed="13.89"/>
    <type id="highway.unclassified" priority="8" numLanes="1" speed="13.89"/>
    <type id="railway.funicular" priority="7" numLanes="1" speed="16.67" allow="rail_urban"/>
    <type id="railway.light_rail" priority="7" numLanes="1" speed="33.33" allow="tram"/>
    <type id="railway.monorail" priority="7" numLanes="1" speed="16.67" allow="tram"/>
    <type id="railway.narrow_gauge" priority="7" numLanes="1" speed="33.33" allow="tram"/>
    <type id="railway.preserved" priority="7" numLanes="1" speed="8.33" allow="tram"/>
    <type id="railway.rail" priority="7" numLanes="1" speed="22.22" allow="rail_electric"/>
    <type id="railway.subway" priority="7" numLanes="1" speed="22.22" allow="rail_urban"/>
    <type id="railway.tram" priority="7" numLanes="1" speed="16.67" allow="rail_urban"/>

    <edge id=":1002_0" function="internal">
        <lane id=":1002_0_0" index="0" allow="bicycle" speed="6.94" length="0.10" shape="898.87,1818.35 898.87,1818.35"/>
    </edge>
    <edge id=":1006_0" function="internal">
        <lane id=":1006_0_0" index="0" allow="bicycle" speed="6.94" length="0.24" shape="895.11,1812.53 895.25,1812.73"/>
    </edge>
    <edge id=":1020_0" function="internal">
        <lane id=":1020_0_0" index="0" speed="8.33" length="5.98" shape="954.37,2043.50 952.75,2044.24 951.67,2044.79 950.63,2045.42 949.14,2046.38"/>
    </edge>
    <edge id=":1020_1" function="internal">
        <lane id=":1020_1_0" index="0" speed="11.11" length="5.11" shape="954.37,2043.50 953.14,2043.84 951.98,2043.71 950.91,2043.12 949.92,2042.06"/>
    </edge>
    <edge id=":1022_0" function="internal">
        <lane id=":1022_0_0" index="0" speed="8.33" length="6.28" shape="984.73,2029.16 979.09,2031.92"/>
    </edge>
    <edge id=":1023_0" function="internal">
        <lane id=":1023_0_0" index="0" speed="13.89" length="5.43" shape="953.21,2023.31 954.50,2022.35 955.32,2021.60 955.94,2020.68 956.64,2019.24"/>
    </edge>
    <edge id=":1023_1" function="internal">
        <lane id=":1023_1_0" index="0" speed="13.89" length="4.90" shape="953.21,2023.31 954.38,2022.68 955.49,2022.55 956.55,2022.91 957.56,2023.78"/>
    </edge>
    <edge id=":1024_0" function="internal">
        <lane id=":1024_0_0" index="0" speed="8.33" length="6.41" shape="971.57,2035.70 965.77,2038.42"/>
    </edge>
    <edge id=":1024_1" function="internal">
        <lane id=":1024_1_0" index="0" speed="11.11" length="5.41" shape="966.70,2034.16 967.55,2035.46 967.68,2036.61 967.09,2037.59 965.77,2038.42"/>
    </edge>
    <edge id=":1070_0" function="internal">
        <lane id=":1070_0_0" index="0" allow="bicycle pedestrian" speed="6.94" length="3.73" shape="1093.36,1949.26 1090.83,1952.00"/>
    </edge>
    <edge id=":1076_0" function="internal">
        <lane id=":1076_0_0" index="0" speed="8.33" length="6.19" shape="1071.55,1988.70 1069.78,1989.17 1068.56,1989.51 1067.39,1989.96 1065.72,1990.72"/>
    </edge>
    <edge id=":1076_1" function="internal">
        <lane id=":1076_1_0" index="0" speed="7.64" length="5.67" shape="1068.23,1985.91 1067.95,1987.63 1067.44,1989.00 1066.69,1990.03 1065.72,1990.72"/>
    </edge>
    <edge id=":1096_0" function="internal">
        <lane id=":1096_0_0" index="0" speed="13.89" length="5.61" shape="401.60,2122.40 401.60,2121.14 401.12,2119.99 400.18,2118.95 398.76,2118.01"/>
    </edge>
    <edge id=":1096_1" function="internal">
        <lane id=":1096_1_0" index="0" speed="13.89" length="6.42" shape="401.60,2122.40 402.65,2116.07"/>
    </edge>
    <edge id=":1102_0" function="internal">
        <lane id=":1102_0_0" index="0" speed="7.64" length="4.95" shape="396.05,2158.38 395.64,2157.22 394.93,2156.33 393.90,2155.72 392.56,2155.40"/>
    </edge>
    <edge id=":1102_1" function="internal">
        <lane id=":1102_1_0" index="0" speed="13.89" length="5.64" shape="396.05,2158.38 395.76,2156.74 395.68,2155.60 395.79,2154.45 396.08,2152.80"/>
    </edge>
    <edge id=":1103_0" function="internal">
        <lane id=":1103_0_0" index="0" speed="13.89" length="6.73" shape="409.81,2229.03 408.40,2222.45"/>
    </edge>
    <edge id=":1103_1" function="internal">
        <lane id=":1103_1_0" index="0" allow="bicycle" speed="10.42" length="5.38" shape="409.81,2229.03 409.68,2227.50 410.10,2226.43 411.08,2225.82 412.61,2225.68"/>
    </edge>
    <edge id=":1103_2" function="internal">
        <lane id=":1103_2_0" index="0" speed="11.11" length="5.00" shape="405.94,2226.08 407.23,2225.63 408.08,2224.88 408.47,2223.82 408.40,2222.45"/>
    </edge>
    <edge id=":1103_3" function="internal">
        <lane id=":1103_3_0" index="0" allow="bicycle" speed="7.64" length="6.71" shape="405.94,2226.08 407.90,2225.73 409.25,2225.58 410.62,2225.58 412.61,2225.68"/>
    </edge>
    <edge id=":1104_0" function="internal">
        <lane id=":1104_0_0" index="0" allow="bicycle" speed="6.94" length="4.87" shape="441.28,2227.12 442.58,2227.01 443.58,2226.51 444.29,2225.64 444.72,2224.39"/>
    </edge>
    <edge id=":1104_1" function="internal">
        <lane id=":1104_1_0" index="0" allow="bicycle" speed="6.94" length="5.81" shape="441.28,2227.12 443.00,2227.22 444.17,2227.36 445.32,2227.64 446.97,2228.13"/>
    </edge>
    <edge id=":1111_0" function="internal">
        <lane id=":1111_0_0" index="0" speed="11.11" length="5.45" shape="451.39,2339.55 450.47,2338.27 449.44,2337.75 448.31,2337.98 447.08,2338.96"/>
    </edge>
    <edge id=":1111_1" function="internal">
        <lane id=":1111_1_0" index="0" speed="13.89" length="6.54" shape="451.39,2339.55 450.49,2337.83 449.85,2336.67 449.14,2335.54 448.04,2333.95"/>
    </edge>
    <edge id=":1121_0" function="internal">
        <lane id=":1121_0_0" index="0" speed="13.89" length="7.15" shape="723.87,2142.06 728.01,2136.23"/>
    </edge>
    <edge id=":1121_1" function="internal">
        <lane id=":1121_1_0" index="0" speed="13.89" length="6.34" shape="723.87,2142.06 725.22,2140.61 726.36,2140.27 727.26,2141.03 727.95,2142.89"/>
    </edge>
    <edge id=":1132_0" function="internal">
        <lane id=":1132_0_0" index="0" allow="bicycle pedestrian" speed="10.42" length="2.31" shape="722.95,2177.26 722.80,2178.12 722.85,2178.48 723.11,2178.34 723.57,2177.70"/>
    </edge>
    <edge id=":1132_1" function="internal">
        <lane id=":1132_1_0" index="0" speed="13.89" length="3.88" shape="722.95,2177.26 722.69,2178.39 722.53,2179.16 722.42,2179.94 722.31,2181.08"/>
    </edge>
    <edge id=":1144_0" function="internal">
        <lane id=":1144_0_0" index="0" speed="8.33" length="5.09" shape="379.92,2488.18 378.68,2487.51 377.55,2487.42 376.53,2487.91 375.61,2488.98"/>
    </edge>
    <edge id=":1144_1" function="internal">
        <lane id=":1144_1_0" index="0" speed="8.33" length="6.15" shape="378.80,2483.73 375.61,2488.98"/>
    </edge>
    <edge id=":1145_0" function="internal">
        <lane id=":1145_0_0" index="0" allow="bicycle pedestrian" speed="8.33" length="4.60" shape="396.63,2503.49 396.72,2502.27 396.50,2501.19 395.96,2500.24 395.11,2499.43"/>
    </edge>
    <edge id=":1145_1" function="internal">
        <lane id=":1145_1_0" index="0" speed="8.33" length="4.60" shape="396.63,2503.49 397.01,2502.34 397.65,2501.46 398.55,2500.85 399.71,2500.50"/>
    </edge>
    <edge id=":1158_0" function="internal">
        <lane id=":1158_0_0" index="0" speed="8.33" length="8.85" shape="446.05,2622.34 440.50,2615.44"/>
    </edge>
    <edge id=":1158_1" function="internal">
        <lane id=":1158_1_0" index="0" speed="8.33" length="7.98" shape="447.52,2618.27 445.66,2618.45 443.87,2618.03 442.15,2617.03 440.50,2615.44"/>
    </edge>
    <edge id=":1158_2" function="internal">
        <lane id=":1158_2_0" index="0" speed="8.33" length="6.34" shape="438.77,2619.23 440.74,2618.99 441.69,2618.27 441.61,2617.09 440.50,2615.44"/>
    </edge>
    <edge id=":1159_0" function="internal">
        <lane id=":1159_0_0" index="0" speed="8.33" length="5.56" shape="545.69,2600.99 544.90,2600.04 543.81,2599.45 542.43,2599.21 540.75,2599.33"/>
    </edge>
    <edge id=":1159_1" function="internal">
        <lane id=":1159_1_0" index="0" speed="8.33" length="6.29" shape="545.69,2600.99 542.72,2595.45"/>
    </edge>
    <edge id=":1161_0" function="internal">
        <lane id=":1161_0_0" index="0" speed="8.33" length="5.17" shape="396.98,2550.70 398.41,2550.51 399.38,2549.91 399.87,2548.88 399.90,2547.44"/>
    </edge>
    <edge id=":1161_1" function="internal">
        <lane id=":1161_1_0" index="0" speed="8.33" length="6.25" shape="396.98,2550.70 403.22,2550.76"/>
    </edge>
    <edge id=":1162_0" function="internal">
        <lane id=":1162_0_0" index="0" speed="8.33" length="5.16" shape="531.66,2548.19 531.91,2549.58 532.52,2550.60 533.50,2551.24 534.86,2551.51"/>
    </edge>
    <edge id=":1162_1" function="internal">
        <lane id=":1162_1_0" index="0" speed="8.33" length="6.28" shape="528.58,2551.34 534.86,2551.51"/>
    </edge>
    <edge id=":1162_2" function="internal">
        <lane id=":1162_2_0" index="0" speed="8.33" length="5.08" shape="531.58,2554.54 531.86,2553.16 532.50,2552.19 533.50,2551.64 534.86,2551.51"/>
    </edge>
    <edge id=":1163_0" function="internal">
        <lane id=":1163_0_0" index="0" speed="8.33" length="6.41" shape="387.90,2554.35 386.77,2552.67 386.69,2551.49 387.65,2550.79 389.66,2550.59"/>
    </edge>
    <edge id=":1163_1" function="internal">
        <lane id=":1163_1_0" index="0" speed="8.33" length="7.20" shape="382.46,2550.32 389.66,2550.59"/>
    </edge>
    <edge id=":1166_0" function="internal">
        <lane id=":1166_0_0" index="0" speed="8.33" length="5.11" shape="378.64,2645.17 379.49,2646.30 380.49,2646.84 381.63,2646.80 382.90,2646.18"/>
    </edge>
    <edge id=":1166_1" function="internal">
        <lane id=":1166_1_0" index="0" speed="8.33" length="6.33" shape="378.64,2645.17 381.91,2650.58"/>
    </edge>
    <edge id=":1170_0" function="internal">
        <lane id=":1170_0_0" index="0" speed="13.89" length="5.52" shape="776.39,2527.19 774.88,2526.54 773.87,2526.00 773.02,2525.27 772.00,2524.01"/>
    </edge>
    <edge id=":1170_1" function="internal">
        <lane id=":1170_1_0" index="0" speed="10.42" length="5.17" shape="772.38,2528.97 772.74,2527.50 772.80,2526.18 772.55,2525.02 772.00,2524.01"/>
    </edge>
    <edge id=":1176_0" function="internal">
        <lane id=":1176_0_0" index="0" speed="13.89" length="9.05" shape="768.24,2519.01 766.24,2516.71 764.34,2515.28 762.54,2514.71 760.83,2515.01"/>
    </edge>
    <edge id=":1176_1" function="internal">
        <lane id=":1176_1_0" index="0" allow="rail_electric" speed="18.06" length="96.52" shape="768.24,2519.01 708.22,2443.43"/>
    </edge>
    <edge id=":1176_2" function="internal">
        <lane id=":1176_2_0" index="0" speed="13.89" length="96.50" shape="768.24,2519.01 758.29,2505.83 739.19,2480.38 720.35,2454.80 711.18,2441.21"/>
    </edge>
    <edge id=":1176_3" function="internal">
        <lane id=":1176_3_0" index="0" speed="18.06" length="15.49" shape="775.72,2517.68 772.05,2516.27 768.23,2514.96 764.42,2514.34 760.83,2515.01"/>
    </edge>
    <edge id=":1176_4" function="internal">
        <lane id=":1176_4_0" index="0" allow="rail_electric" speed="22.22" length="100.40" shape="775.72,2517.68 763.59,2505.94 741.28,2481.46 719.31,2456.52 708.22,2443.43"/>
    </edge>
    <edge id=":1176_5" function="internal">
        <lane id=":1176_5_0" index="0" speed="18.06" length="103.48" shape="775.72,2517.68 755.19,2507.02 737.59,2490.73 722.92,2468.79 711.18,2441.21"/>
    </edge>
    <edge id=":1176_6" function="internal">
        <lane id=":1176_6_0" index="0" speed="13.89" length="15.75" shape="776.42,2514.14 772.52,2513.89 768.47,2513.73 764.49,2513.99 760.83,2515.01"/>
    </edge>
    <edge id=":1176_7" function="internal">
        <lane id=":1176_7_0" index="0" allow="rail_electric" speed="18.06" length="99.76" shape="776.42,2514.14 764.82,2509.37 749.58,2496.00 730.72,2474.01 708.22,2443.43"/>
    </edge>
    <edge id=":1176_8" function="internal">
        <lane id=":1176_8_0" index="0" speed="13.89" length="103.54" shape="776.42,2514.14 756.87,2508.85 739.48,2494.93 724.25,2472.38 711.18,2441.21"/>
    </edge>
    <edge id=":1177_0" function="internal">
        <lane id=":1177_0_0" index="0" speed="13.89" length="0.22" shape="737.49,2525.19 737.29,2525.28"/>
    </edge>
    <edge id=":1183_0" function="internal">
        <lane id=":1183_0_0" index="0" speed="13.89" length="0.26" shape="651.38,2566.87 651.15,2566.99"/>
    </edge>
    <edge id=":1184_0" function="internal">
        <lane id=":1184_0_0" index="0" speed="8.33" length="6.11" shape="577.90,2656.42 574.67,2651.23"/>
    </edge>
    <edge id=":1184_1" function="internal">
        <lane id=":1184_1_0" index="0" speed="8.33" length="5.12" shape="573.32,2655.40 574.52,2654.64 575.15,2653.69 575.20,2652.55 574.67,2651.23"/>
    </edge>
    <edge id=":1185_0" function="internal">
        <lane id=":1185_0_0" index="0" speed="13.89" length="6.12" shape="671.54,2679.85 675.70,2684.33"/>
    </edge>
    <edge id=":1185_1" function="internal">
        <lane id=":1185_1_0" index="0" speed="11.11" length="5.16" shape="671.03,2684.20 672.32,2683.50 673.53,2683.29 674.65,2683.57 675.70,2684.33"/>
    </edge>
    <edge id=":1186_0" function="internal">
        <lane id=":1186_0_0" index="0" allow="bicycle" speed="6.94" length="7.22" shape="762.05,2565.77 760.00,2565.24 758.65,2564.64 757.48,2563.70 755.99,2562.18"/>
    </edge>
    <edge id=":1186_1" function="internal">
        <lane id=":1186_1_0" index="0" allow="bicycle" speed="6.94" length="5.65" shape="762.05,2565.77 760.69,2565.22 759.94,2564.30 759.78,2563.02 760.23,2561.37"/>
    </edge>
    <edge id=":1188_0" function="internal">
        <lane id=":1188_0_0" index="0" speed="13.89" length="6.27" shape="595.01,2556.70 594.17,2555.04 593.65,2553.88 593.22,2552.67 592.63,2550.91"/>
    </edge>
    <edge id=":1188_1" function="internal">
        <lane id=":1188_1_0" index="0" speed="11.11" length="5.55" shape="590.02,2554.37 591.63,2554.23 592.61,2553.60 592.94,2552.50 592.63,2550.91"/>
    </edge>
    <edge id=":1189_0" function="internal">
        <lane id=":1189_0_0" index="0" speed="13.89" length="5.00" shape="614.12,2586.28 613.01,2587.08 612.42,2588.05 612.35,2589.17 612.81,2590.47"/>
    </edge>
    <edge id=":1189_1" function="internal">
        <lane id=":1189_1_0" index="0" speed="13.89" length="5.00" shape="614.12,2586.28 612.83,2586.74 611.70,2586.67 610.73,2586.09 609.93,2584.98"/>
    </edge>
    <edge id=":1223_0" function="internal">
        <lane id=":1223_0_0" index="0" speed="8.33" length="6.34" shape="1125.11,2209.48 1126.62,2208.37 1127.68,2207.63 1128.76,2206.93 1130.37,2205.95"/>
    </edge>
    <edge id=":1223_1" function="internal">
        <lane id=":1223_1_0" index="0" speed="11.11" length="5.06" shape="1125.11,2209.48 1126.34,2208.82 1127.47,2208.73 1128.50,2209.21 1129.42,2210.26"/>
    </edge>
    <edge id=":1232_0" function="internal">
        <lane id=":1232_0_0" index="0" speed="8.33" length="7.28" shape="1062.01,2396.10 1061.99,2394.54 1062.61,2393.08 1063.85,2391.70 1065.73,2390.41"/>
    </edge>
    <edge id=":1232_1" function="internal">
        <lane id=":1232_1_0" index="0" speed="8.33" length="6.40" shape="1062.38,2387.97 1062.20,2389.97 1062.70,2391.05 1063.88,2391.20 1065.73,2390.41"/>
    </edge>
    <edge id=":1232_2" function="internal">
        <lane id=":1232_2_0" index="0" speed="8.33" length="8.29" shape="1058.23,2393.86 1060.56,2393.10 1062.12,2392.45 1063.60,2391.64 1065.73,2390.41"/>
    </edge>
    <edge id=":1235_0" function="internal">
        <lane id=":1235_0_0" index="0" speed="11.11" length="5.23" shape="1151.41,2243.68 1152.38,2244.78 1153.43,2245.23 1154.56,2245.03 1155.76,2244.17"/>
    </edge>
    <edge id=":1235_1" function="internal">
        <lane id=":1235_1_0" index="0" speed="13.89" length="6.56" shape="1151.41,2243.68 1152.48,2245.30 1153.27,2246.38 1154.16,2247.37 1155.54,2248.74"/>
    </edge>
    <edge id=":1235_2" function="internal">
        <lane id=":1235_2_0" index="0" speed="8.33" length="6.61" shape="1150.49,2248.12 1152.19,2247.14 1153.31,2246.39 1154.34,2245.52 1155.76,2244.17"/>
    </edge>
    <edge id=":1235_3" function="internal">
        <lane id=":1235_3_0" index="0" speed="11.11" length="5.50" shape="1150.49,2248.12 1151.86,2247.56 1153.15,2247.48 1154.38,2247.88 1155.54,2248.74"/>
    </edge>
    <edge id=":1237_0" function="internal">
        <lane id=":1237_0_0" index="0" speed="8.33" length="5.91" shape="1079.85,2286.25 1081.52,2285.46 1082.45,2284.48 1082.65,2283.28 1082.11,2281.89"/>
    </edge>
    <edge id=":1237_1" function="internal">
        <lane id=":1237_1_0" index="0" speed="8.33" length="7.29" shape="1079.85,2286.25 1081.90,2285.57 1083.30,2285.07 1084.65,2284.47 1086.58,2283.49"/>
    </edge>
    <edge id=":1237_2" function="internal">
        <lane id=":1237_2_0" index="0" speed="8.33" length="5.85" shape="1079.85,2286.25 1081.57,2285.91 1082.68,2286.27 1083.17,2287.33 1083.04,2289.08"/>
    </edge>
    <edge id=":1244_0" function="internal">
        <lane id=":1244_0_0" index="0" speed="1.39" length="6.12" shape="826.76,2465.40 824.94,2465.29 823.63,2465.27 822.44,2465.59 820.96,2466.53"/>
    </edge>
    <edge id=":1245_0" function="internal">
        <lane id=":1245_0_0" index="0" speed="7.64" length="0.66" shape="818.77,2468.17 818.61,2468.29 818.52,2468.38 818.44,2468.49 818.34,2468.66"/>
    </edge>
    <edge id=":1255_0" function="internal">
        <lane id=":1255_0_0" index="0" speed="8.33" length="6.11" shape="966.40,2424.44 966.54,2422.64 966.58,2421.39 966.53,2420.15 966.43,2418.34"/>
    </edge>
    <edge id=":1255_1" function="internal">
        <lane id=":1255_1_0" index="0" speed="8.33" length="5.43" shape="966.40,2424.44 966.71,2423.25 967.42,2422.26 968.52,2421.45 970.01,2420.84"/>
    </edge>
    <edge id=":1258_0" function="internal">
        <lane id=":1258_0_0" index="0" speed="4.86" length="6.04" shape="970.67,2476.82 968.88,2476.84 967.65,2476.90 966.43,2477.01 964.65,2477.21"/>
    </edge>
    <edge id=":1258_1" function="internal">
        <lane id=":1258_1_0" index="0" speed="8.33" length="5.03" shape="970.67,2476.82 969.37,2476.64 968.38,2476.07 967.71,2475.11 967.35,2473.76"/>
    </edge>
    <edge id=":1268_0" function="internal">
        <lane id=":1268_0_0" index="0" allow="bicycle" speed="6.94" length="7.42" shape="875.06,2593.01 872.86,2592.99 871.35,2592.98 869.85,2592.88 867.67,2592.61"/>
    </edge>
    <edge id=":128_0" function="internal">
        <lane id=":128_0_0" index="0" speed="13.89" length="6.23" shape="657.55,972.07 652.44,968.51"/>
    </edge>
    <edge id=":128_1" function="internal">
        <lane id=":128_1_0" index="0" speed="11.11" length="5.13" shape="656.71,967.52 655.85,968.66 654.85,969.21 653.71,969.16 652.44,968.51"/>
    </edge>
    <edge id=":1283_0" function="internal">
        <lane id=":1283_0_0" index="0" speed="8.33" length="6.18" shape="1077.99,2456.78 1072.22,2458.99"/>
    </edge>
    <edge id=":1283_1" function="internal">
        <lane id=":1283_1_0" index="0" speed="8.33" length="5.18" shape="1077.99,2456.78 1076.57,2457.08 1075.46,2456.82 1074.66,2456.01 1074.16,2454.65"/>
    </edge>
    <edge id=":1298_0" function="internal">
        <lane id=":1298_0_0" index="0" speed="10.42" length="5.20" shape="1122.07,2544.39 1121.75,2542.97 1121.05,2542.07 1119.97,2541.69 1118.52,2541.82"/>
    </edge>
    <edge id=":1298_1" function="internal">
        <lane id=":1298_1_0" index="0" speed="13.89" length="6.11" shape="1124.40,2540.14 1122.68,2540.72 1121.49,2541.09 1120.29,2541.40 1118.52,2541.82"/>
    </edge>
    <edge id=":1305_0" function="internal">
        <lane id=":1305_0_0" index="0" allow="bicycle" speed="6.94" length="6.12" shape="1128.04,2578.43 1122.00,2579.48"/>
    </edge>
    <edge id=":1305_1" function="internal">
        <lane id=":1305_1_0" index="0" allow="bicycle" speed="6.94" length="5.08" shape="1128.04,2578.43 1126.63,2578.44 1125.59,2577.98 1124.92,2577.07 1124.60,2575.70"/>
    </edge>
    <edge id=":1308_0" function="internal">
        <lane id=":1308_0_0" index="0" allow="bicycle pedestrian" speed="6.94" length="17.39" shape="1382.54,1555.90 1380.07,1559.12 1377.96,1563.16 1376.11,1567.39 1374.43,1571.19"/>
    </edge>
    <edge id=":1308_1" function="internal">
        <lane id=":1308_1_0" index="0" allow="bicycle pedestrian" speed="6.94" length="17.40" shape="1382.54,1555.90 1379.73,1558.91 1376.83,1562.45 1374.01,1566.06 1371.46,1569.31"/>
    </edge>
    <edge id=":1318_0" function="internal">
        <lane id=":1318_0_0" index="0" allow="bicycle pedestrian" speed="6.94" length="17.47" shape="1291.91,1696.10 1289.71,1699.57 1287.83,1703.77 1286.39,1708.16 1285.46,1712.20"/>
    </edge>
    <edge id=":1318_1" function="internal">
        <lane id=":1318_1_0" index="0" allow="bicycle pedestrian" speed="6.94" length="17.86" shape="1291.91,1696.10 1289.40,1699.46 1286.73,1703.37 1284.17,1707.35 1282.00,1710.94"/>
    </edge>
    <edge id=":1318_2" function="internal">
        <lane id=":1318_2_0" index="0" allow="bicycle pedestrian" speed="6.94" length="17.89" shape="1288.37,1694.55 1285.46,1712.20"/>
    </edge>
    <edge id=":1318_3" function="internal">
        <lane id=":1318_3_0" index="0" allow="bicycle pedestrian" speed="6.94" length="17.66" shape="1288.37,1694.55 1287.41,1698.59 1285.84,1702.98 1283.95,1707.25 1282.00,1710.94"/>
    </edge>
    <edge id=":1341_0" function="internal">
        <lane id=":1341_0_0" index="0" speed="7.64" length="9.48" shape="1502.62,1798.81 1501.53,1797.46 1501.09,1795.52 1501.29,1793.00 1502.13,1789.88"/>
    </edge>
    <edge id=":1341_1" function="internal">
        <lane id=":1341_1_0" index="0" speed="7.64" length="8.34" shape="1502.62,1798.81 1501.74,1797.60 1501.89,1796.07 1503.10,1794.24 1505.34,1792.09"/>
    </edge>
    <edge id=":1341_2" function="internal">
        <lane id=":1341_2_0" index="0" speed="8.33" length="9.68" shape="1497.59,1797.99 1499.78,1796.35 1500.81,1794.71 1501.36,1792.67 1502.13,1789.88"/>
    </edge>
    <edge id=":1341_3" function="internal">
        <lane id=":1341_3_0" index="0" speed="8.33" length="9.76" shape="1497.59,1797.99 1500.05,1796.47 1501.64,1795.29 1503.14,1793.98 1505.34,1792.09"/>
    </edge>
    <edge id=":1342_0" function="internal">
        <lane id=":1342_0_0" index="0" speed="8.33" length="6.27" shape="1540.90,1714.65 1543.47,1708.93"/>
    </edge>
    <edge id=":1342_1" function="internal">
        <lane id=":1342_1_0" index="0" allow="bicycle pedestrian" speed="7.64" length="5.43" shape="1540.90,1714.65 1541.62,1713.61 1542.64,1712.95 1543.95,1712.67 1545.56,1712.77"/>
    </edge>
    <edge id=":1344_0" function="internal">
        <lane id=":1344_0_0" index="0" allow="bicycle pedestrian" speed="7.64" length="9.31" shape="1597.97,1696.19 1599.24,1693.20 1599.18,1691.80 1597.79,1691.99 1595.06,1693.76"/>
    </edge>
    <edge id=":1344_1" function="internal">
        <lane id=":1344_1_0" index="0" allow="bicycle pedestrian" speed="8.33" length="10.36" shape="1597.97,1696.19 1602.72,1686.99"/>
    </edge>
    <edge id=":1346_0" function="internal">
        <lane id=":1346_0_0" index="0" allow="bicycle pedestrian" speed="6.94" length="4.75" shape="1571.71,1714.52 1571.11,1715.64 1570.96,1716.74 1571.23,1717.81 1571.95,1718.86"/>
    </edge>
    <edge id=":1346_1" function="internal">
        <lane id=":1346_1_0" index="0" allow="bicycle pedestrian" speed="6.94" length="5.15" shape="1567.62,1716.39 1569.10,1716.68 1570.08,1717.08 1570.91,1717.75 1571.95,1718.86"/>
    </edge>
    <edge id=":1348_0" function="internal">
        <lane id=":1348_0_0" index="0" allow="bicycle pedestrian" speed="7.64" length="9.08" shape="1578.52,1726.17 1579.87,1726.95 1581.38,1726.47 1583.04,1724.72 1584.85,1721.70"/>
    </edge>
    <edge id=":1348_1" function="internal">
        <lane id=":1348_1_0" index="0" speed="7.64" length="10.22" shape="1578.52,1726.17 1580.05,1727.11 1582.10,1727.09 1584.66,1726.11 1587.73,1724.18"/>
    </edge>
    <edge id=":1348_2" function="internal">
        <lane id=":1348_2_0" index="0" speed="7.64" length="9.08" shape="1578.52,1726.17 1580.40,1728.02 1581.99,1728.96 1583.85,1729.40 1586.52,1729.75"/>
    </edge>
    <edge id=":1348_3" function="internal">
        <lane id=":1348_3_0" index="0" allow="bicycle pedestrian" speed="8.33" length="11.33" shape="1578.64,1731.03 1580.91,1728.85 1582.33,1726.83 1583.45,1724.58 1584.85,1721.70"/>
    </edge>
    <edge id=":1348_4" function="internal">
        <lane id=":1348_4_0" index="0" speed="8.33" length="11.38" shape="1578.64,1731.03 1587.73,1724.18"/>
    </edge>
    <edge id=":1348_5" function="internal">
        <lane id=":1348_5_0" index="0" speed="8.33" length="8.18" shape="1578.64,1731.03 1580.05,1730.19 1581.83,1729.70 1583.98,1729.55 1586.52,1729.75"/>
    </edge>
    <edge id=":1353_0" function="internal">
        <lane id=":1353_0_0" index="0" speed="8.33" length="10.23" shape="1289.55,1930.12 1286.87,1931.44 1284.87,1932.04 1282.77,1932.42 1279.82,1933.05"/>
    </edge>
    <edge id=":1353_1" function="internal">
        <lane id=":1353_1_0" index="0" speed="8.33" length="9.30" shape="1281.55,1936.42 1283.88,1934.16 1284.37,1932.85 1283.02,1932.48 1279.82,1933.05"/>
    </edge>
    <edge id=":1357_0" function="internal">
        <lane id=":1357_0_0" index="0" speed="8.33" length="5.20" shape="1355.37,1897.00 1354.30,1895.96 1353.18,1895.42 1352.02,1895.37 1350.80,1895.82"/>
    </edge>
    <edge id=":1357_1" function="internal">
        <lane id=":1357_1_0" index="0" speed="8.33" length="6.15" shape="1356.09,1892.67 1350.80,1895.82"/>
    </edge>
    <edge id=":1359_0" function="internal">
        <lane id=":1359_0_0" index="0" allow="bicycle pedestrian" speed="8.33" length="0.10" shape="1255.94,1957.91 1255.94,1957.91"/>
    </edge>
    <edge id=":1367_0" function="internal">
        <lane id=":1367_0_0" index="0" speed="8.33" length="5.51" shape="1339.40,2078.15 1338.19,2077.06 1337.42,2076.23 1336.84,2075.26 1336.17,2073.78"/>
    </edge>
    <edge id=":1367_1" function="internal">
        <lane id=":1367_1_0" index="0" speed="8.33" length="4.89" shape="1335.03,2078.19 1335.91,2077.17 1336.40,2076.09 1336.48,2074.96 1336.17,2073.78"/>
    </edge>
    <edge id=":1377_0" function="internal">
        <lane id=":1377_0_0" index="0" speed="8.33" length="1.26" shape="1469.00,1815.27 1469.11,1814.92 1469.23,1814.69 1469.42,1814.51 1469.73,1814.31"/>
    </edge>
    <edge id=":1378_0" function="internal">
        <lane id=":1378_0_0" index="0" speed="8.33" length="6.51" shape="1469.96,1825.91 1468.10,1826.43 1466.82,1826.81 1465.60,1827.32 1463.92,1828.25"/>
    </edge>
    <edge id=":1378_1" function="internal">