<?xml version="1.0" encoding="UTF-8"?>

<!-- generated on Sun Jan 14 15:53:35 2018 by SUMO netgenerate Version 0.30.0
<?xml version="1.0" encoding="UTF-8"?>

<configuration xmlns:xsi="http://www.w3.org/2001/XMLSchema-instance" xsi:noNamespaceSchemaLocation="http://sumo.dlr.de/xsd/netgenerateConfiguration.xsd">

    <random_network>
        <rand value="true"/>
        <rand.iterations value="15"/>
        <rand.neighbor-dist5 value="0"/>
        <rand.neighbor-dist6 value="0"/>
    </random_network>

    <output>
        <output-file value="../examples/data/small_city/city.net.xml"/>
    </output>

    <tls_building>
        <tls.guess value="true"/>
        <tls.left-green.time value="0"/>
    </tls_building>

    <processing>
        <no-turnarounds value="true"/>
    </processing>

    <building_defaults>
        <default.lanenumber value="2"/>
    </building_defaults>

</configuration>
-->

<net version="0.27" xmlns:xsi="http://www.w3.org/2001/XMLSchema-instance" xsi:noNamespaceSchemaLocation="http://sumo.dlr.de/xsd/net_file.xsd">

    <location netOffset="353.12,362.77" convBoundary="0.00,0.00,910.25,697.01" origBoundary="-353.12,-362.77,557.13,334.24" projParameter="!"/>

    <edge id=":1_0" function="internal">
        <lane id=":1_0_0" index="0" speed="13.90" length="5.38" shape="348.33,373.09 348.09,371.57 347.42,370.64 346.33,370.29 344.80,370.53"/>
    </edge>
    <edge id=":1_1" function="internal">
        <lane id=":1_1_0" index="0" speed="13.90" length="17.12" shape="348.33,373.09 348.27,368.12 348.11,364.71 347.61,361.34 346.53,356.50"/>
        <lane id=":1_1_1" index="1" speed="13.90" length="17.12" shape="351.63,373.04 351.56,367.85 351.39,364.30 350.87,360.78 349.73,355.73"/>
    </edge>
    <edge id=":1_3" function="internal">
        <lane id=":1_3_0" index="0" speed="13.90" length="7.45" shape="351.63,373.04 352.18,367.82 353.17,365.85"/>
    </edge>
    <edge id=":1_16" function="internal">
        <lane id=":1_16_0" index="0" speed="13.90" length="10.16" shape="353.17,365.85 354.03,364.15 357.16,362.02 361.59,361.44"/>
    </edge>
    <edge id=":1_4" function="internal">
        <lane id=":1_4_0" index="0" speed="13.90" length="6.59" shape="361.34,368.04 359.95,368.30 358.97,369.20 358.40,370.75 358.23,372.94"/>
    </edge>
    <edge id=":1_5" function="internal">
        <lane id=":1_5_0" index="0" speed="13.90" length="17.43" shape="361.34,368.04 356.35,367.94 352.93,368.24 349.58,369.05 344.80,370.53"/>
        <lane id=":1_5_1" index="1" speed="13.90" length="17.43" shape="361.46,364.74 356.15,364.64 352.50,364.94 348.92,365.81 343.83,367.38"/>
    </edge>
    <edge id=":1_7" function="internal">
        <lane id=":1_7_0" index="0" speed="13.90" length="6.68" shape="361.46,364.74 357.11,364.04 355.08,363.01"/>
    </edge>
    <edge id=":1_17" function="internal">
        <lane id=":1_17_0" index="0" speed="13.90" length="9.34" shape="355.08,363.01 353.70,362.30 351.25,359.53 349.73,355.73"/>
    </edge>
    <edge id=":1_8" function="internal">
        <lane id=":1_8_0" index="0" speed="13.90" length="7.39" shape="356.15,354.19 356.84,355.85 358.00,357.07 359.62,357.83 361.71,358.14"/>
    </edge>
    <edge id=":1_9" function="internal">
        <lane id=":1_9_0" index="0" speed="13.90" length="18.57" shape="356.15,354.19 357.39,359.66 357.96,363.47 358.15,367.32 358.23,372.94"/>
        <lane id=":1_9_1" index="1" speed="13.90" length="18.57" shape="352.94,354.96 354.13,360.22 354.68,363.88 354.86,367.59 354.93,372.99"/>
    </edge>
    <edge id=":1_11" function="internal">
        <lane id=":1_11_0" index="0" speed="13.90" length="5.93" shape="352.94,354.96 353.18,359.08 352.48,360.75"/>
    </edge>
    <edge id=":1_18" function="internal">
        <lane id=":1_18_0" index="0" speed="13.90" length="11.33" shape="352.48,360.75 351.74,362.53 348.62,365.30 343.83,367.38"/>
    </edge>
    <edge id=":1_12" function="internal">
        <lane id=":1_12_0" index="0" speed="13.90" length="7.18" shape="341.87,361.08 344.17,360.17 345.71,359.10 346.50,357.88 346.53,356.50"/>
    </edge>
    <edge id=":1_13" function="internal">
        <lane id=":1_13_0" index="0" speed="13.90" length="19.68" shape="341.87,361.08 347.59,359.32 351.63,358.36 355.74,358.03 361.71,358.14"/>
        <lane id=":1_13_1" index="1" speed="13.90" length="19.68" shape="342.85,364.23 348.26,362.56 352.06,361.65 355.94,361.33 361.59,361.44"/>
    </edge>
    <edge id=":1_15" function="internal">
        <lane id=":1_15_0" index="0" speed="13.90" length="7.12" shape="342.85,364.23 348.06,363.40 349.81,363.95"/>
    </edge>
    <edge id=":1_19" function="internal">
        <lane id=":1_19_0" index="0" speed="13.90" length="11.31" shape="349.81,363.95 351.81,364.58 354.10,367.77 354.93,372.99"/>
    </edge>
    <edge id=":12_0" function="internal">
        <lane id=":12_0_0" index="0" speed="13.90" length="25.54" shape="431.81,200.16 427.38,195.04 422.77,191.32 417.52,188.41 411.23,185.72"/>
    </edge>
    <edge id=":12_1" function="internal">
        <lane id=":12_1_0" index="0" speed="13.90" length="29.64" shape="431.81,200.16 427.61,193.94 423.93,187.38 420.69,180.57 417.83,173.62"/>
        <lane id=":12_1_1" index="1" speed="13.90" length="29.64" shape="434.46,198.19 430.33,192.09 426.79,185.80 423.70,179.27 420.91,172.43"/>
    </edge>
    <edge id=":12_3" function="internal">
        <lane id=":12_3_0" index="0" speed="13.90" length="8.35" shape="434.46,198.19 431.43,192.71 431.42,190.62"/>
    </edge>
    <edge id=":12_15" function="internal">
        <lane id=":12_15_0" index="0" speed="13.90" length="12.64" shape="431.42,190.62 431.42,188.48 434.42,185.50 440.44,183.77"/>
    </edge>
    <edge id=":12_4" function="internal">
        <lane id=":12_4_0" index="0" speed="13.90" length="5.76" shape="441.40,190.30 439.75,190.77 438.92,191.59 438.92,192.75 439.76,194.25"/>
    </edge>
    <edge id=":12_5" function="internal">
        <lane id=":12_5_0" index="0" speed="13.90" length="29.98" shape="441.40,190.30 433.82,190.71 426.09,189.94 418.47,188.20 411.23,185.72"/>
        <lane id=":12_5_1" index="1" speed="13.90" length="29.98" shape="440.92,187.03 433.60,187.48 426.46,186.77 419.42,185.10 412.45,182.65"/>
    </edge>
    <edge id=":12_7" function="internal">
        <lane id=":12_7_0" index="0" speed="13.90" length="9.13" shape="440.92,187.03 434.56,186.87 432.04,185.72"/>
    </edge>
    <edge id=":12_16" function="internal">
        <lane id=":12_16_0" index="0" speed="13.90" length="17.87" shape="432.04,185.72 429.10,184.38 424.55,179.57 420.91,172.43"/>
    </edge>
    <edge id=":12_8" function="internal">
        <lane id=":12_8_0" index="0" speed="13.90" length="18.01" shape="427.07,170.06 429.56,175.09 432.53,178.51 436.00,180.31 439.96,180.50"/>
    </edge>
    <edge id=":12_9" function="internal">
        <lane id=":12_9_0" index="0" speed="13.90" length="27.85" shape="427.07,170.06 429.73,176.65 432.52,182.65 435.76,188.40 439.76,194.25"/>
        <lane id=":12_9_1" index="1" speed="13.90" length="27.85" shape="423.99,171.25 426.71,177.96 429.66,184.23 433.05,190.25 437.11,196.22"/>
    </edge>
    <edge id=":12_11" function="internal">
        <lane id=":12_11_0" index="0" speed="13.90" length="8.91" shape="423.99,171.25 425.99,179.04 425.76,179.87"/>
    </edge>
    <edge id=":12_17" function="internal">
        <lane id=":12_17_0" index="0" speed="13.90" length="16.53" shape="425.76,179.87 424.73,183.54 420.22,184.75 412.45,182.65"/>
    </edge>
    <edge id=":12_12" function="internal">
        <lane id=":12_12_0" index="0" speed="13.90" length="6.48" shape="414.89,176.52 416.87,177.05 418.02,176.75 418.34,175.60 417.83,173.62"/>
    </edge>
    <edge id=":12_13" function="internal">
        <lane id=":12_13_0" index="0" speed="13.90" length="27.44" shape="413.67,179.59 420.38,182.00 426.83,183.61 433.39,184.24 440.44,183.77"/>
    </edge>
    <edge id=":12_14" function="internal">
        <lane id=":12_14_0" index="0" speed="13.90" length="29.11" shape="413.67,179.59 420.41,182.62 426.63,186.28 432.23,190.76 437.11,196.22"/>
    </edge>
    <edge id=":14_0" function="internal">
        <lane id=":14_0_0" index="0" speed="13.90" length="10.76" shape="239.05,13.50 237.26,9.83 235.61,7.23 234.10,5.69 232.74,5.22"/>
    </edge>
    <edge id=":14_1" function="internal">
        <lane id=":14_1_0" index="0" speed="13.90" length="21.12" shape="242.07,12.16 240.30,6.10 241.23,1.95 244.84,-0.27 251.15,-0.58"/>
    </edge>
    <edge id=":14_2" function="internal">
        <lane id=":14_2_0" index="0" speed="13.90" length="5.78" shape="250.59,6.00 248.86,6.08 247.87,6.69 247.62,7.83 248.10,9.48"/>
    </edge>
    <edge id=":14_3" function="internal">
        <lane id=":14_3_0" index="0" speed="13.90" length="18.11" shape="250.59,6.00 245.30,5.50 241.67,5.17 238.04,5.06 232.74,5.22"/>
        <lane id=":14_3_1" index="1" speed="13.90" length="18.11" shape="250.87,2.71 245.45,2.20 241.74,1.87 238.02,1.76 232.59,1.92"/>
    </edge>
    <edge id=":14_5" function="internal">
        <lane id=":14_5_0" index="0" speed="13.90" length="18.97" shape="232.28,-4.67 237.97,-4.84 241.86,-4.74 245.75,-4.40 251.43,-3.87"/>
        <lane id=":14_5_1" index="1" speed="13.90" length="18.97" shape="232.43,-1.37 237.99,-1.54 241.80,-1.43 245.60,-1.10 251.15,-0.58"/>
    </edge>
    <edge id=":14_7" function="internal">
        <lane id=":14_7_0" index="0" speed="13.90" length="5.13" shape="232.43,-1.37 235.89,-0.73 237.22,0.18"/>
    </edge>
    <edge id=":14_8" function="internal">
        <lane id=":14_8_0" index="0" speed="13.90" length="13.43" shape="237.22,0.18 239.15,1.51 242.21,5.36 245.08,10.82"/>
    </edge>
    <edge id=":18_0" function="internal">
        <lane id=":18_0_0" index="0" speed="13.90" length="11.90" shape="747.21,305.25 745.63,304.73 743.20,304.89 739.91,305.72 735.77,307.22"/>
    </edge>
    <edge id=":18_1" function="internal">
        <lane id=":18_1_0" index="0" speed="13.90" length="18.40" shape="747.21,305.25 732.71,293.81"/>
        <lane id=":18_1_1" index="1" speed="13.90" length="18.40" shape="749.18,302.60 734.79,291.24"/>
    </edge>
    <edge id=":18_3" function="internal">
        <lane id=":18_3_0" index="0" speed="13.90" length="5.23" shape="749.18,302.60 746.99,300.03 746.42,298.26"/>
    </edge>
    <edge id=":18_14" function="internal">
        <lane id=":18_14_0" index="0" speed="13.90" length="12.96" shape="746.42,298.26 745.80,296.32 745.60,291.46 746.40,285.45"/>
    </edge>
    <edge id=":18_4" function="internal">
        <lane id=":18_4_0" index="0" speed="13.90" length="10.87" shape="752.88,286.73 752.22,290.79 752.04,293.91 752.34,296.07 753.11,297.30"/>
    </edge>
    <edge id=":18_5" function="internal">
        <lane id=":18_5_0" index="0" speed="13.90" length="24.59" shape="749.64,286.09 747.73,292.10 744.58,297.12 740.18,301.14 734.54,304.16"/>
    </edge>
    <edge id=":18_6" function="internal">
        <lane id=":18_6_0" index="0" speed="13.90" length="10.87" shape="749.64,286.09 747.62,291.97 744.47,294.79 744.05,294.77"/>
    </edge>
    <edge id=":18_15" function="internal">
        <lane id=":18_15_0" index="0" speed="13.90" length="10.20" shape="744.05,294.77 740.19,294.55 734.79,291.24"/>
    </edge>
    <edge id=":18_7" function="internal">
        <lane id=":18_7_0" index="0" speed="13.90" length="5.92" shape="738.95,286.12 740.49,287.08 741.71,287.18 742.60,286.42 743.17,284.81"/>
    </edge>
    <edge id=":18_8" function="internal">
        <lane id=":18_8_0" index="0" speed="13.90" length="18.11" shape="738.95,286.12 753.11,297.30"/>
        <lane id=":18_8_1" index="1" speed="13.90" length="18.11" shape="736.87,288.68 751.14,299.95"/>
    </edge>
    <edge id=":18_10" function="internal">
        <lane id=":18_10_0" index="0" speed="13.90" length="7.61" shape="736.87,288.68 741.21,293.29 741.53,294.53"/>
    </edge>
    <edge id=":18_16" function="internal">
        <lane id=":18_16_0" index="0" speed="13.90" length="13.56" shape="741.53,294.53 742.27,297.41 740.05,301.03 734.54,304.16"/>
    </edge>
    <edge id=":18_11" function="internal">
        <lane id=":18_11_0" index="0" speed="13.90" length="5.79" shape="732.07,298.04 733.58,297.18 734.19,296.19 733.90,295.07 732.71,293.81"/>
    </edge>
    <edge id=":18_12" function="internal">
        <lane id=":18_12_0" index="0" speed="13.90" length="21.31" shape="733.31,301.10 738.20,298.48 742.02,295.00 744.75,290.65 746.40,285.45"/>
    </edge>
    <edge id=":18_13" function="internal">
        <lane id=":18_13_0" index="0" speed="13.90" length="7.25" shape="733.31,301.10 739.13,299.13 740.21,298.94"/>
    </edge>
    <edge id=":18_17" function="internal">
        <lane id=":18_17_0" index="0" speed="13.90" length="11.30" shape="740.21,298.94 744.05,298.28 748.05,298.55 751.14,299.95"/>
    </edge>
    <edge id=":2_0" function="internal">
        <lane id=":2_0_0" index="0" speed="13.90" length="17.71" shape="297.05,150.48 295.96,145.42 295.26,141.93 294.28,138.54 292.35,133.77"/>
        <lane id=":2_0_1" index="1" speed="13.90" length="17.71" shape="300.26,149.71 299.13,144.48 298.39,140.87 297.37,137.36 295.37,132.43"/>
    </edge>
    <edge id=":2_2" function="internal">
        <lane id=":2_2_0" index="0" speed="13.90" length="8.71" shape="300.26,149.71 299.50,142.74 300.17,141.18"/>
    </edge>
    <edge id=":2_8" function="internal">
        <lane id=":2_8_0" index="0" speed="13.90" length="14.16" shape="300.17,141.18 301.25,138.68 305.52,137.52 312.31,139.27"/>
    </edge>
    <edge id=":2_3" function="internal">
        <lane id=":2_3_0" index="0" speed="13.90" length="6.06" shape="309.87,145.40 308.07,144.94 306.94,145.24 306.48,146.32 306.68,148.17"/>
    </edge>
    <edge id=":2_4" function="internal">
        <lane id=":2_4_0" index="0" speed="13.90" length="19.49" shape="311.09,142.34 305.52,140.53 301.40,139.28 298.20,137.08 295.37,132.43"/>
    </edge>
    <edge id=":2_5" function="internal">
        <lane id=":2_5_0" index="0" speed="13.90" length="14.46" shape="301.40,129.76 303.57,133.06 306.12,134.38 309.33,135.01 313.53,136.20"/>
    </edge>
    <edge id=":2_6" function="internal">
        <lane id=":2_6_0" index="0" speed="13.90" length="18.91" shape="301.40,129.76 303.55,135.02 304.66,138.75 305.46,142.59 306.68,148.17"/>
        <lane id=":2_6_1" index="1" speed="13.90" length="18.91" shape="298.39,131.09 300.46,136.19 301.53,139.81 302.29,143.54 303.47,148.94"/>
    </edge>
    <edge id=":24_0" function="internal">
        <lane id=":24_0_0" index="0" speed="13.90" length="2.16" shape="677.81,555.43 677.28,554.90 676.94,554.52 676.64,554.10 676.23,553.48"/>
        <lane id=":24_0_1" index="1" speed="13.90" length="2.16" shape="680.13,553.08 679.76,552.71 679.51,552.44 679.30,552.14 679.01,551.69"/>
    </edge>
    <edge id=":24_2" function="internal">
        <lane id=":24_2_0" index="0" speed="13.90" length="0.71" shape="684.56,548.13 684.61,548.21 684.66,548.27 684.70,548.32 684.78,548.40"/>
        <lane id=":24_2_1" index="1" speed="13.90" length="0.71" shape="681.78,549.91 681.96,550.18 682.08,550.35 682.23,550.52 682.45,550.74"/>
    </edge>
    <edge id=":37_0" function="internal">
        <lane id=":37_0_0" index="0" speed="13.90" length="3.65" shape="357.25,15.98 357.03,15.57 356.73,15.26 356.35,15.06 355.89,14.96"/>
        <lane id=":37_0_1" index="1" speed="13.90" length="3.65" shape="360.33,14.80 359.66,13.53 358.74,12.59 357.58,11.97 356.17,11.67"/>
    </edge>
    <edge id=":37_2" function="internal">
        <lane id=":37_2_0" index="0" speed="13.90" length="11.07" shape="356.73,5.10 360.04,5.79 362.76,7.24 364.91,9.45 366.49,12.43"/>
        <lane id=":37_2_1" index="1" speed="13.90" length="11.07" shape="356.45,8.39 358.81,8.88 360.75,9.91 362.29,11.49 363.41,13.62"/>
    </edge>
    <edge id=":63_0" function="internal">
        <lane id=":63_0_0" index="0" speed="13.90" length="2.69" shape="580.60,170.40 580.32,170.21 580.02,170.09 579.70,170.04 579.36,170.06"/>
        <lane id=":63_0_1" index="1" speed="13.90" length="2.69" shape="582.68,167.84 581.82,167.27 580.90,166.90 579.92,166.74 578.89,166.80"/>
    </edge>
    <edge id=":63_2" function="internal">
        <lane id=":63_2_0" index="0" speed="13.90" length="8.15" shape="577.93,160.27 580.36,160.14 582.65,160.51 584.82,161.37 586.84,162.71"/>
        <lane id=":63_2_1" index="1" speed="13.90" length="8.15" shape="578.41,163.53 580.14,163.44 581.78,163.71 583.32,164.32 584.76,165.28"/>
    </edge>
    <edge id=":8_0" function="internal">
        <lane id=":8_0_0" index="0" speed="13.90" length="18.03" shape="565.66,381.39 563.26,378.85 559.75,376.96 555.13,375.74 549.40,375.17"/>
    </edge>
    <edge id=":8_1" function="internal">
        <lane id=":8_1_0" index="0" speed="13.90" length="24.34" shape="565.66,381.39 551.72,361.58"/>
        <lane id=":8_1_1" index="1" speed="13.90" length="24.34" shape="568.44,379.61 554.37,359.61"/>
    </edge>
    <edge id=":8_3" function="internal">
        <lane id=":8_3_0" index="0" speed="13.90" length="6.26" shape="568.44,379.61 566.40,375.15 566.42,373.79"/>
    </edge>
    <edge id=":8_16" function="internal">
        <lane id=":8_16_0" index="0" speed="13.90" length="11.15" shape="566.42,373.79 566.46,371.35 568.61,368.22 572.85,365.75"/>
    </edge>
    <edge id=":8_4" function="internal">
        <lane id=":8_4_0" index="0" speed="13.90" length="5.24" shape="575.32,371.87 574.04,372.61 573.40,373.56 573.38,374.70 573.99,376.04"/>
    </edge>
    <edge id=":8_5" function="internal">
        <lane id=":8_5_0" index="0" speed="13.90" length="25.68" shape="575.32,371.87 568.76,374.02 562.63,375.06 556.36,375.34 549.40,375.17"/>
        <lane id=":8_5_1" index="1" speed="13.90" length="25.68" shape="574.09,368.81 567.74,370.92 562.07,371.89 556.27,372.08 549.52,371.87"/>
    </edge>
    <edge id=":8_7" function="internal">
        <lane id=":8_7_0" index="0" speed="13.90" length="6.86" shape="574.09,368.81 569.14,369.73 567.36,369.29"/>
    </edge>
    <edge id=":8_17" function="internal">
        <lane id=":8_17_0" index="0" speed="13.90" length="16.62" shape="567.36,369.29 564.20,368.51 559.28,365.13 554.37,359.61"/>
    </edge>
    <edge id=":8_8" function="internal">
        <lane id=":8_8_0" index="0" speed="13.90" length="14.80" shape="559.67,355.67 562.95,359.53 566.04,361.98 568.93,363.03 571.62,362.69"/>
    </edge>
    <edge id=":8_9" function="internal">
        <lane id=":8_9_0" index="0" speed="13.90" length="24.79" shape="559.67,355.67 573.99,376.04"/>
        <lane id=":8_9_1" index="1" speed="13.90" length="24.79" shape="557.02,357.64 571.21,377.83"/>
    </edge>
    <edge id=":8_11" function="internal">
        <lane id=":8_11_0" index="0" speed="13.90" length="9.17" shape="557.02,357.64 560.71,364.13 560.70,365.83"/>
    </edge>
    <edge id=":8_18" function="internal">
        <lane id=":8_18_0" index="0" speed="13.90" length="14.84" shape="560.70,365.83 560.69,368.67 556.96,371.25 549.52,371.87"/>
    </edge>
    <edge id=":8_12" function="internal">
        <lane id=":8_12_0" index="0" speed="13.90" length="6.24" shape="549.77,365.28 551.71,365.11 552.68,364.44 552.68,363.26 551.72,361.58"/>
    </edge>
    <edge id=":8_13" function="internal">
        <lane id=":8_13_0" index="0" speed="13.90" length="22.94" shape="549.77,365.28 556.10,365.56 560.96,365.53 565.70,364.72 571.62,362.69"/>
        <lane id=":8_13_1" index="1" speed="13.90" length="22.94" shape="549.65,368.58 556.18,368.82 561.52,368.71 566.72,367.82 572.85,365.75"/>
    </edge>
    <edge id=":8_15" function="internal">
        <lane id=":8_15_0" index="0" speed="13.90" length="10.76" shape="549.65,368.58 557.00,369.38 560.22,370.35"/>
    </edge>
    <edge id=":8_19" function="internal">
        <lane id=":8_19_0" index="0" speed="13.90" length="13.59" shape="560.22,370.35 563.05,371.19 567.78,374.01 571.21,377.83"/>
    </edge>

    <edge id="-11" from="10" to="1" priority="-1">
        <lane id="-11_0" index="0" speed="13.90" length="159.68" shape="189.36,408.40 341.87,361.08"/>
        <lane id="-11_1" index="1" speed="13.90" length="159.68" shape="190.34,411.56 342.85,364.23"/>
    </edge>
    <edge id="-13" from="12" to="2" priority="-1">
        <lane id="-13_0" index="0" speed="13.90" length="109.08" shape="411.23,185.72 309.87,145.40"/>
        <lane id="-13_1" index="1" speed="13.90" length="109.08" shape="412.45,182.65 311.09,142.34"/>
    </edge>
    <edge id="-15" from="14" to="2" priority="-1">
        <lane id="-15_0" index="0" speed="13.90" length="131.55" shape="248.10,9.48 301.40,129.76"/>
        <lane id="-15_1" index="1" speed="13.90" length="131.55" shape="245.08,10.82 298.39,131.09"/>
    </edge>
    <edge id="-17" from="12" to="8" priority="-1">
        <lane id="-17_0" index="0" speed="13.90" length="201.08" shape="439.76,194.25 559.67,355.67"/>
        <lane id="-17_1" index="1" speed="13.90" length="201.08" shape="437.11,196.22 557.02,357.64"/>
    </edge>
    <edge id="-19" from="18" to="8" priority="-1">
        <lane id="-19_0" index="0" speed="13.90" length="172.99" shape="735.77,307.22 575.32,371.87"/>
        <lane id="-19_1" index="1" speed="13.90" length="172.99" shape="734.54,304.16 574.09,368.81"/>
    </edge>
    <edge id="-25" from="24" to="8" priority="-1">
        <lane id="-25_0" index="0" speed="13.90" length="204.54" shape="676.23,553.48 565.66,381.39"/>
        <lane id="-25_1" index="1" speed="13.90" length="204.54" shape="679.01,551.69 568.44,379.61"/>
    </edge>
    <edge id="-3" from="2" to="1" priority="-1">
        <lane id="-3_0" index="0" speed="13.90" length="211.88" shape="306.68,148.17 356.15,354.19"/>
        <lane id="-3_1" index="1" speed="13.90" length="211.88" shape="303.47,148.94 352.94,354.96"/>
    </edge>
    <edge id="-38" from="37" to="12" priority="-1">
        <lane id="-38_0" index="0" speed="13.90" length="168.87" shape="366.49,12.43 427.07,170.06"/>
        <lane id="-38_1" index="1" speed="13.90" length="168.87" shape="363.41,13.62 423.99,171.25"/>
    </edge>
    <edge id="-64" from="63" to="12" priority="-1">
        <lane id="-64_0" index="0" speed="13.90" length="139.44" shape="579.36,170.06 441.40,190.30"/>
        <lane id="-64_1" index="1" speed="13.90" length="139.44" shape="578.89,166.80 440.92,187.03"/>
    </edge>
    <edge id="-65" from="37" to="14" priority="-1">
        <lane id="-65_0" index="0" speed="13.90" length="105.69" shape="355.89,14.96 250.59,6.00"/>
        <lane id="-65_1" index="1" speed="13.90" length="105.69" shape="356.17,11.67 250.87,2.71"/>
    </edge>
    <edge id="-69" from="68" to="14" priority="-1">
        <lane id="-69_0" index="0" speed="13.90" length="232.76" shape="-0.23,6.03 232.28,-4.67"/>
        <lane id="-69_1" index="1" speed="13.90" length="232.76" shape="-0.08,9.33 232.43,-1.37"/>
    </edge>
    <edge id="-7" from="6" to="1" priority="-1">
        <lane id="-7_0" index="0" speed="13.90" length="201.24" shape="351.49,574.31 348.33,373.09"/>
        <lane id="-7_1" index="1" speed="13.90" length="201.24" shape="354.79,574.26 351.63,373.04"/>
    </edge>
    <edge id="-71" from="63" to="18" priority="-1">
        <lane id="-71_0" index="0" speed="13.90" length="195.87" shape="586.84,162.71 738.95,286.12"/>
        <lane id="-71_1" index="1" speed="13.90" length="195.87" shape="584.76,165.28 736.87,288.68"/>
    </edge>
    <edge id="-77" from="76" to="18" priority="-1">
        <lane id="-77_0" index="0" speed="13.90" length="199.28" shape="907.30,423.92 747.21,305.25"/>
        <lane id="-77_1" index="1" speed="13.90" length="199.28" shape="909.27,421.27 749.18,302.60"/>
    </edge>
    <edge id="-79" from="78" to="18" priority="-1">
        <lane id="-79_0" index="0" speed="13.90" length="186.89" shape="789.05,103.37 752.88,286.73"/>
        <lane id="-79_1" index="1" speed="13.90" length="186.89" shape="785.82,102.73 749.64,286.09"/>
    </edge>
    <edge id="-81" from="80" to="24" priority="-1">
        <lane id="-81_0" index="0" speed="13.90" length="206.11" shape="824.19,700.53 677.81,555.43"/>
        <lane id="-81_1" index="1" speed="13.90" length="206.11" shape="826.52,698.18 680.13,553.08"/>
    </edge>
    <edge id="-9" from="8" to="1" priority="-1">
        <lane id="-9_0" index="0" speed="13.90" length="188.19" shape="549.40,375.17 361.34,368.04"/>
        <lane id="-9_1" index="1" speed="13.90" length="188.19" shape="549.52,371.87 361.46,364.74"/>
    </edge>
    <edge id="11" from="1" to="10" priority="-1">
        <lane id="11_0" index="0" speed="13.90" length="159.68" shape="344.80,370.53 192.30,417.86"/>
        <lane id="11_1" index="1" speed="13.90" length="159.68" shape="343.83,367.38 191.32,414.71"/>
    </edge>
    <edge id="13" from="2" to="12" priority="-1">
        <lane id="13_0" index="0" speed="13.90" length="109.08" shape="313.53,136.20 414.89,176.52"/>
        <lane id="13_1" index="1" speed="13.90" length="109.08" shape="312.31,139.27 413.67,179.59"/>
    </edge>
    <edge id="15" from="2" to="14" priority="-1">
        <lane id="15_0" index="0" speed="13.90" length="131.55" shape="292.35,133.77 239.05,13.50"/>
        <lane id="15_1" index="1" speed="13.90" length="131.55" shape="295.37,132.43 242.07,12.16"/>
    </edge>
    <edge id="17" from="8" to="12" priority="-1">
        <lane id="17_0" index="0" speed="13.90" length="201.08" shape="551.72,361.58 431.81,200.16"/>
        <lane id="17_1" index="1" speed="13.90" length="201.08" shape="554.37,359.61 434.46,198.19"/>
    </edge>
    <edge id="19" from="8" to="18" priority="-1">
        <lane id="19_0" index="0" speed="13.90" length="172.99" shape="571.62,362.69 732.07,298.04"/>
        <lane id="19_1" index="1" speed="13.90" length="172.99" shape="572.85,365.75 733.31,301.10"/>
    </edge>
    <edge id="25" from="8" to="24" priority="-1">
        <lane id="25_0" index="0" speed="13.90" length="204.54" shape="573.99,376.04 684.56,548.13"/>
        <lane id="25_1" index="1" speed="13.90" length="204.54" shape="571.21,377.83 681.78,549.91"/>
    </edge>
    <edge id="3" from="1" to="2" priority="-1">
        <lane id="3_0" index="0" speed="13.90" length="211.88" shape="346.53,356.50 297.05,150.48"/>
        <lane id="3_1" index="1" speed="13.90" length="211.88" shape="349.73,355.73 300.26,149.71"/>
    </edge>
    <edge id="38" from="12" to="37" priority="-1">
        <lane id="38_0" index="0" speed="13.90" length="168.87" shape="417.83,173.62 357.25,15.98"/>
        <lane id="38_1" index="1" speed="13.90" length="168.87" shape="420.91,172.43 360.33,14.80"/>
    </edge>
    <edge id="64" from="12" to="63" priority="-1">
        <lane id="64_0" index="0" speed="13.90" length="139.44" shape="439.96,180.50 577.93,160.27"/>
        <lane id="64_1" index="1" speed="13.90" length="139.44" shape="440.44,183.77 578.41,163.53"/>
    </edge>
    <edge id="65" from="14" to="37" priority="-1">
        <lane id="65_0" index="0" speed="13.90" length="105.69" shape="251.43,-3.87 356.73,5.10"/>
        <lane id="65_1" index="1" speed="13.90" length="105.69" shape="251.15,-0.58 356.45,8.39"/>
    </edge>
    <edge id="69" from="14" to="68" priority="-1">
        <lane id="69_0" index="0" speed="13.90" length="232.76" shape="232.74,5.22 0.23,15.92"/>
        <lane id="69_1" index="1" speed="13.90" length="232.76" shape="232.59,1.92 0.08,12.62"/>
    </edge>
    <edge id="7" from="1" to="6" priority="-1">
        <lane id="7_0" index="0" speed="13.90" length="201.24" shape="358.23,372.94 361.39,574.16"/>
        <lane id="7_1" index="1" speed="13.90" length="201.24" shape="354.93,372.99 358.09,574.21"/>
    </edge>
    <edge id="71" from="18" to="63" priority="-1">
        <lane id="71_0" index="0" speed="13.90" length="195.87" shape="732.71,293.81 580.60,170.40"/>
        <lane id="71_1" index="1" speed="13.90" length="195.87" shape="734.79,291.24 582.68,167.84"/>
    </edge>
    <edge id="77" from="18" to="76" priority="-1">
        <lane id="77_0" index="0" speed="13.90" length="199.28" shape="753.11,297.30 913.20,415.97"/>
        <lane id="77_1" index="1" speed="13.90" length="199.28" shape="751.14,299.95 911.23,418.62"/>
    </edge>
    <edge id="79" from="18" to="78" priority="-1">
        <lane id="79_0" index="0" speed="13.90" length="186.89" shape="743.17,284.81 779.34,101.45"/>
        <lane id="79_1" index="1" speed="13.90" length="186.89" shape="746.40,285.45 782.58,102.09"/>
    </edge>
    <edge id="81" from="24" to="80" priority="-1">
        <lane id="81_0" index="0" speed="13.90" length="206.11" shape="684.78,548.40 831.16,693.50"/>
        <lane id="81_1" index="1" speed="13.90" length="206.11" shape="682.45,550.74 828.84,695.84"/>
    </edge>
    <edge id="9" from="1" to="8" priority="-1">
        <lane id="9_0" index="0" speed="13.90" length="188.19" shape="361.71,358.14 549.77,365.28"/>
        <lane id="9_1" index="1" speed="13.90" length="188.19" shape="361.59,361.44 549.65,368.58"/>
    </edge>

    <tlLogic id="1" type="static" programID="0" offset="0">
        <phase duration="41" state="GGGgrrrrGGGgrrrr"/>
        <phase duration="4" state="yyyyrrrryyyyrrrr"/>
        <phase duration="41" state="rrrrGGGgrrrrGGGg"/>
        <phase duration="4" state="rrrryyyyrrrryyyy"/>
    </tlLogic>
    <tlLogic id="12" type="static" programID="0" offset="0">
        <phase duration="41" state="GGGgrrrrGGGgrrr"/>
        <phase duration="4" state="yyyyrrrryyyyrrr"/>
        <phase duration="41" state="rrrrGGGgrrrrGGg"/>
        <phase duration="4" state="rrrryyyyrrrryyy"/>
    </tlLogic>
    <tlLogic id="14" type="static" programID="0" offset="0">
        <phase duration="41" state="rrGGGGGg"/>
        <phase duration="4" state="rryyyyyy"/>
        <phase duration="41" state="GGGrrrrr"/>
        <phase duration="4" state="yyyrrrrr"/>
    </tlLogic>
    <tlLogic id="18" type="static" programID="0" offset="0">
        <phase duration="41" state="GGGgrrrGGGgrrr"/>