<additional xmlns:xsi="http://www.w3.org/2001/XMLSchema-instance" xsi:noNamespaceSchemaLocation="http://sumo.dlr.de/xsd/additional_file.xsd">
    <laneAreaDetector file="e2.output.xml" freq="60" friendlyPos="x" id="1_e2det_-11_0" lane="-11_0" length="60" pos="99.58000000000001"/>
    <laneAreaDetector file="e2.output.xml" freq="60" friendlyPos="x" id="1_e2det_-11_1" lane="-11_1" length="60" pos="99.58000000000001"/>
    <laneAreaDetector file="e2.output.xml" freq="60" friendlyPos="x" id="1_e2det_-3_0" lane="-3_0" length="60" pos="151.78"/>
    <laneAreaDetector file="e2.output.xml" freq="60" friendlyPos="x" id="1_e2det_-3_1" lane="-3_1" length="60" pos="151.78"/>
    <laneAreaDetector file="e2.output.xml" freq="60" friendlyPos="x" id="1_e2det_-7_0" lane="-7_0" length="60" pos="141.14000000000001"/>
    <laneAreaDetector file="e2.output.xml" freq="60" friendlyPos="x" id="1_e2det_-7_1" lane="-7_1" length="60" pos="141.14000000000001"/>
    <laneAreaDetector file="e2.output.xml" freq="60" friendlyPos="x" id="1_e2det_-9_0" lane="-9_0" length="60" pos="128.09"/>
    <laneAreaDetector file="e2.output.xml" freq="60" friendlyPos="x" id="1_e2det_-9_1" lane="-9_1" length="60" pos="128.09"/>
    <laneAreaDetector file="e2.output.xml" freq="60" friendlyPos="x" id="2_e2det_-13_0" lane="-13_0" length="60" pos="48.98"/>
    <laneAreaDetector file="e2.output.xml" freq="60" friendlyPos="x" id="2_e2det_-13_1" lane="-13_1" length="60" pos="48.98"/>
    <laneAreaDetector file="e2.output.xml" freq="60" friendlyPos="x" id="2_e2det_-15_0" lane="-15_0" length="60" pos="71.45000000000002"/>
    <laneAreaDetector file="e2.output.xml" freq="60" friendlyPos="x" id="2_e2det_-15_1" lane="-15_1" length="60" pos="71.45000000000002"/>
    <laneAreaDetector file="e2.output.xml" freq="60" friendlyPos="x" id="2_e2det_3_0" lane="3_0" length="60" pos="151.78"/>
    <laneAreaDetector file="e2.output.xml" freq="60" friendlyPos="x" id="2_e2det_3_1" lane="3_1" length="60" pos="151.78"/>
    <laneAreaDetector file="e2.output.xml" freq="60" friendlyPos="x" id="8_e2det_-17_0" lane="-17_0" length="60" pos="140.98000000000002"/>
    <laneAreaDetector file="e2.output.xml" freq="60" friendlyPos="x" id="8_e2det_-17_1" lane="-17_1" length="60" pos="140.98000000000002"/>
    <laneAreaDetector file="e2.output.xml" freq="60" friendlyPos="x" id="8_e2det_-19_0" lane="-19_0" length="60" pos="112.89000000000001"/>
    <laneAreaDetector file="e2.output.xml" freq="60" friendlyPos="x" id="8_e2det_-19_1" lane="-19_1" length="60" pos="112.89000000000001"/>
    <laneAreaDetector file="e2.output.xml" freq="60" friendlyPos="x" id="8_e2det_-25_0" lane="-25_0" length="60" pos="144.44"/>
    <laneAreaDetector file="e2.output.xml" freq="60" friendlyPos="x" id="8_e2det_-25_1" lane="-25_1" length="60" pos="144.44"/>
    <laneAreaDetector file="e2.output.xml" freq="60" friendlyPos="x" id="8_e2det_9_0" lane="9_0" length="60" pos="128.09"/>
    <laneAreaDetector file="e2.output.xml" freq="60" friendlyPos="x" id="8_e2det_9_1" lane="9_1" length="60" pos="128.09"/>
    <laneAreaDetector file="e2.output.xml" freq="60" friendlyPos="x" id="12_e2det_-38_0" lane="-38_0" length="60" pos="108.77000000000001"/>
    <laneAreaDetector file="e2.output.xml" freq="60" friendlyPos="x" id="12_e2det_-38_1" lane="-38_1" length="60" pos="108.77000000000001"/>
    <laneAreaDetector file="e2.output.xml" freq="60" friendlyPos="x" id="12_e2det_-64_0" lane="-64_0" length="60" pos="79.34"/>
    <laneAreaDetector file="e2.output.xml" freq="60" friendlyPos="x" id="12_e2det_-64_1" lane="-64_1" length="60" pos="79.34"/>
    <laneAreaDetector file="e2.output.xml" freq="60" friendlyPos="x" id="12_e2det_13_0" lane="13_0" length="60" pos="48.98"/>
    <laneAreaDetector file="e2.output.xml" freq="60" friendlyPos="x" id="12_e2det_13_1" lane="13_1" length="60" pos="48.98"/>
    <laneAreaDetector file="e2.output.xml" freq="60" friendlyPos="x" id="12_e2det_17_0" lane="17_0" length="60" pos="140.98000000000002"/>
    <laneAreaDetector file="e2.output.xml" freq="60" friendlyPos="x" id="12_e2det_17_1" lane="17_1" length="60" pos="140.98000000000002"/>
    <laneAreaDetector file="e2.output.xml" freq="60" friendlyPos="x" id="14_e2det_-65_0" lane="-65_0" length="60" pos="45.589999999999996"/>
    <laneAreaDetector file="e2.output.xml" freq="60" friendlyPos="x" id="14_e2det_-65_1" lane="-65_1" length="60" pos="45.589999999999996"/>
    <laneAreaDetector file="e2.output.xml" freq="60" friendlyPos="x" id="14_e2det_-69_0" lane="-69_0" length="60" pos="172.66"/>
    <laneAreaDetector file="e2.output.xml" freq="60" friendlyPos="x" id="14_e2det_-69_1" lane="-69_1" length="60" pos="172.66"/>
    <laneAreaDetector file="e2.output.xml" freq="60" friendlyPos="x" id="14_e2det_15_0" lane="15_0" length="60" pos="71.45000000000002"/>
    <laneAreaDetector file="e2.output.xml" freq="60" friendlyPos="x" id="14_e2det_15_1" lane="15_1" length="60" pos="71.45000000000002"/>
    <laneAreaDetector file="e2.output.xml" freq="60" friendlyPos="x" id="18_e2det_-71_0" lane="-71_0" length="60" pos="135.77"/>
    <laneAreaDetector file="e2.output.xml" freq="60" friendlyPos="x" id="18_e2det_-71_1" lane="-71_1" length="60" pos="135.77"/>
    <laneAreaDetector file="e2.output.xml" freq="60" friendlyPos="x" id="18_e2det_-77_0" lane="-77_0" length="60" pos="139.18"/>
    <laneAreaDetector file="e2.output.xml" freq="60" friendlyPos="x" id="18_e2det_-77_1" lane="-77_1" length="60" pos="139.18"/>
    <laneAreaDetector file="e2.output.xml" freq="60" friendlyPos="x" id="18_e2det_-79_0" lane="-79_0" length="60" pos="126.78999999999999"/>
    <laneAreaDetector file="e2.output.xml" freq="60" friendlyPos="x" id="18_e2det_-79_1" lane="-79_1" length="60" pos="126.78999999999999"/>
    <laneAreaDetector file="e2.output.xml" freq="60" friendlyPos="x" id="18_e2det_19_0" lane="19_0" length="60" pos="112.89000000000001"/>
    <laneAreaDetector file="e2.output.xml" freq="60" friendlyPos="x" id="18_e2det_19_1" lane="19_1" length="60" pos="112.89000000000001"/>
</additional>
