<additional xmlns:xsi="http://www.w3.org/2001/XMLSchema-instance" xsi:noNamespaceSchemaLocation="http://sumo.dlr.de/xsd/additional_file.xsd">
    <laneAreaDetector file="e2_Static.output.xml" freq="60" friendlyPos="x" id="1_e2det_-11_0" lane="-11_0" length="60" pos="78.95000000000002"/>
    <laneAreaDetector file="e2_Static.output.xml" freq="60" friendlyPos="x" id="1_e2det_-11_1" lane="-11_1" length="60" pos="78.95000000000002"/>
    <laneAreaDetector file="e2_Static.output.xml" freq="60" friendlyPos="x" id="1_e2det_-11_2" lane="-11_2" length="60" pos="78.95000000000002"/>
    <laneAreaDetector file="e2_Static.output.xml" freq="60" friendlyPos="x" id="1_e2det_-11_3" lane="-11_3" length="60" pos="78.95000000000002"/>
    <laneAreaDetector file="e2_Static.output.xml" freq="60" friendlyPos="x" id="1_e2det_-3_0" lane="-3_0" length="60" pos="130.13"/>
    <laneAreaDetector file="e2_Static.output.xml" freq="60" friendlyPos="x" id="1_e2det_-3_1" lane="-3_1" length="60" pos="130.13"/>
    <laneAreaDetector file="e2_Static.output.xml" freq="60" friendlyPos="x" id="1_e2det_-7_0" lane="-7_0" length="60" pos="100.91"/>
    <laneAreaDetector file="e2_Static.output.xml" freq="60" friendlyPos="x" id="1_e2det_-7_1" lane="-7_1" length="60" pos="100.91"/>
    <laneAreaDetector file="e2_Static.output.xml" freq="60" friendlyPos="x" id="1_e2det_-7_3" lane="-7_3" length="60" pos="100.91"/>
    <laneAreaDetector file="e2_Static.output.xml" freq="60" friendlyPos="x" id="1_e2det_-9_0" lane="-9_0" length="60" pos="99.88"/>
    <laneAreaDetector file="e2_Static.output.xml" freq="60" friendlyPos="x" id="1_e2det_-9_1" lane="-9_1" length="60" pos="99.88"/>
    <laneAreaDetector file="e2_Static.output.xml" freq="60" friendlyPos="x" id="1_e2det_-9_2" lane="-9_2" length="60" pos="99.88"/>
    <laneAreaDetector file="e2_Static.output.xml" freq="60" friendlyPos="x" id="1_e2det_-9_3" lane="-9_3" length="60" pos="99.88"/>
    <laneAreaDetector file="e2_Static.output.xml" freq="60" friendlyPos="x" id="2_e2det_-13_0" lane="-13_0" length="60" pos="37.4"/>
    <laneAreaDetector file="e2_Static.output.xml" freq="60" friendlyPos="x" id="2_e2det_-13_1" lane="-13_1" length="60" pos="37.4"/>
    <laneAreaDetector file="e2_Static.output.xml" freq="60" friendlyPos="x" id="2_e2det_3_0" lane="3_0" length="60" pos="130.13"/>
    <laneAreaDetector file="e2_Static.output.xml" freq="60" friendlyPos="x" id="2_e2det_3_1" lane="3_1" length="60" pos="130.13"/>
    <laneAreaDetector file="e2_Static.output.xml" freq="60" friendlyPos="x" id="8_e2det_-15_0" lane="-15_0" length="60" pos="129.99"/>
    <laneAreaDetector file="e2_Static.output.xml" freq="60" friendlyPos="x" id="8_e2det_-15_1" lane="-15_1" length="60" pos="129.99"/>
    <laneAreaDetector file="e2_Static.output.xml" freq="60" friendlyPos="x" id="8_e2det_-19_0" lane="-19_0" length="60" pos="115.91"/>
    <laneAreaDetector file="e2_Static.output.xml" freq="60" friendlyPos="x" id="8_e2det_-19_1" lane="-19_1" length="60" pos="115.91"/>
    <laneAreaDetector file="e2_Static.output.xml" freq="60" friendlyPos="x" id="8_e2det_-19_2" lane="-19_2" length="60" pos="115.91"/>
    <laneAreaDetector file="e2_Static.output.xml" freq="60" friendlyPos="x" id="8_e2det_-25_0" lane="-25_0" length="60" pos="118.95000000000002"/>
    <laneAreaDetector file="e2_Static.output.xml" freq="60" friendlyPos="x" id="8_e2det_-25_1" lane="-25_1" length="60" pos="118.95000000000002"/>
    <laneAreaDetector file="e2_Static.output.xml" freq="60" friendlyPos="x" id="8_e2det_-63_0" lane="-63_0" length="60" pos="61.559999999999995"/>
    <laneAreaDetector file="e2_Static.output.xml" freq="60" friendlyPos="x" id="8_e2det_-63_1" lane="-63_1" length="60" pos="61.559999999999995"/>
    <laneAreaDetector file="e2_Static.output.xml" freq="60" friendlyPos="x" id="8_e2det_-63_2" lane="-63_2" length="60" pos="61.559999999999995"/>
    <laneAreaDetector file="e2_Static.output.xml" freq="60" friendlyPos="x" id="8_e2det_-63_3" lane="-63_3" length="60" pos="61.559999999999995"/>
    <laneAreaDetector file="e2_Static.output.xml" freq="60" friendlyPos="x" id="8_e2det_-63_5" lane="-63_5" length="60" pos="61.559999999999995"/>
    <laneAreaDetector file="e2_Static.output.xml" freq="60" friendlyPos="x" id="8_e2det_9_0" lane="9_0" length="60" pos="99.88"/>
    <laneAreaDetector file="e2_Static.output.xml" freq="60" friendlyPos="x" id="8_e2det_9_1" lane="9_1" length="60" pos="99.88"/>
    <laneAreaDetector file="e2_Static.output.xml" freq="60" friendlyPos="x" id="8_e2det_9_2" lane="9_2" length="60" pos="99.88"/>
    <laneAreaDetector file="e2_Static.output.xml" freq="60" friendlyPos="x" id="8_e2det_9_3" lane="9_3" length="60" pos="99.88"/>
    <laneAreaDetector file="e2_Static.output.xml" freq="60" friendlyPos="x" id="18_e2det_-173_0" lane="-173_0" length="60" pos="151.8"/>
    <laneAreaDetector file="e2_Static.output.xml" freq="60" friendlyPos="x" id="18_e2det_-175_0" lane="-175_0" length="60" pos="130.48000000000002"/>
    <laneAreaDetector file="e2_Static.output.xml" freq="60" friendlyPos="x" id="18_e2det_-175_1" lane="-175_1" length="60" pos="130.48000000000002"/>
    <laneAreaDetector file="e2_Static.output.xml" freq="60" friendlyPos="x" id="18_e2det_-175_2" lane="-175_2" length="60" pos="130.48000000000002"/>
    <laneAreaDetector file="e2_Static.output.xml" freq="60" friendlyPos="x" id="18_e2det_-175_3" lane="-175_3" length="60" pos="130.48000000000002"/>
    <laneAreaDetector file="e2_Static.output.xml" freq="60" friendlyPos="x" id="18_e2det_-179_0" lane="-179_0" length="60" pos="53.88999999999999"/>
    <laneAreaDetector file="e2_Static.output.xml" freq="60" friendlyPos="x" id="18_e2det_-179_1" lane="-179_1" length="60" pos="53.88999999999999"/>
    <laneAreaDetector file="e2_Static.output.xml" freq="60" friendlyPos="x" id="18_e2det_-179_2" lane="-179_2" length="60" pos="53.88999999999999"/>
    <laneAreaDetector file="e2_Static.output.xml" freq="60" friendlyPos="x" id="18_e2det_-203_0" lane="-203_0" length="60" pos="52.839999999999996"/>
    <laneAreaDetector file="e2_Static.output.xml" freq="60" friendlyPos="x" id="18_e2det_-203_1" lane="-203_1" length="60" pos="52.839999999999996"/>
    <laneAreaDetector file="e2_Static.output.xml" freq="60" friendlyPos="x" id="18_e2det_19_0" lane="19_0" length="60" pos="115.91"/>
    <laneAreaDetector file="e2_Static.output.xml" freq="60" friendlyPos="x" id="18_e2det_19_1" lane="19_1" length="60" pos="115.91"/>
    <laneAreaDetector file="e2_Static.output.xml" freq="60" friendlyPos="x" id="18_e2det_19_2" lane="19_2" length="60" pos="115.91"/>
    <laneAreaDetector file="e2_Static.output.xml" freq="60" friendlyPos="x" id="62_e2det_-205_0" lane="-205_0" length="60" pos="27.270000000000003"/>
    <laneAreaDetector file="e2_Static.output.xml" freq="60" friendlyPos="x" id="62_e2det_-205_1" lane="-205_1" length="60" pos="27.270000000000003"/>
    <laneAreaDetector file="e2_Static.output.xml" freq="60" friendlyPos="x" id="62_e2det_-205_2" lane="-205_2" length="60" pos="27.270000000000003"/>
    <laneAreaDetector file="e2_Static.output.xml" freq="60" friendlyPos="x" id="62_e2det_-205_3" lane="-205_3" length="60" pos="27.270000000000003"/>
    <laneAreaDetector file="e2_Static.output.xml" freq="60" friendlyPos="x" id="62_e2det_-205_4" lane="-205_4" length="60" pos="27.270000000000003"/>
    <laneAreaDetector file="e2_Static.output.xml" freq="60" friendlyPos="x" id="62_e2det_-682_0" lane="-682_0" length="60" pos="58.279999999999994"/>
    <laneAreaDetector file="e2_Static.output.xml" freq="60" friendlyPos="x" id="62_e2det_-682_1" lane="-682_1" length="60" pos="58.279999999999994"/>
    <laneAreaDetector file="e2_Static.output.xml" freq="60" friendlyPos="x" id="62_e2det_-682_2" lane="-682_2" length="60" pos="58.279999999999994"/>
    <laneAreaDetector file="e2_Static.output.xml" freq="60" friendlyPos="x" id="62_e2det_63_0" lane="63_0" length="60" pos="61.559999999999995"/>
    <laneAreaDetector file="e2_Static.output.xml" freq="60" friendlyPos="x" id="62_e2det_63_1" lane="63_1" length="60" pos="61.559999999999995"/>
    <laneAreaDetector file="e2_Static.output.xml" freq="60" friendlyPos="x" id="62_e2det_63_2" lane="63_2" length="60" pos="61.559999999999995"/>
    <laneAreaDetector file="e2_Static.output.xml" freq="60" friendlyPos="x" id="62_e2det_63_3" lane="63_3" length="60" pos="61.559999999999995"/>
    <laneAreaDetector file="e2_Static.output.xml" freq="60" friendlyPos="x" id="62_e2det_63_4" lane="63_4" length="60" pos="61.559999999999995"/>
    <laneAreaDetector file="e2_Static.output.xml" freq="60" friendlyPos="x" id="62_e2det_63_5" lane="63_5" length="60" pos="61.559999999999995"/>
    <laneAreaDetector file="e2_Static.output.xml" freq="60" friendlyPos="x" id="67_e2det_-213_0" lane="-213_0" length="60" pos="170.33"/>
    <laneAreaDetector file="e2_Static.output.xml" freq="60" friendlyPos="x" id="67_e2det_173_0" lane="173_0" length="60" pos="151.8"/>
    <laneAreaDetector file="e2_Static.output.xml" freq="60" friendlyPos="x" id="67_e2det_68_0" lane="68_0" length="60" pos="120.82"/>
    <laneAreaDetector file="e2_Static.output.xml" freq="60" friendlyPos="x" id="67_e2det_68_3" lane="68_3" length="60" pos="120.82"/>
    <laneAreaDetector file="e2_Static.output.xml" freq="60" friendlyPos="x" id="69_e2det_-217_0" lane="-217_0" length="60" pos="6.190000000000007"/>
    <laneAreaDetector file="e2_Static.output.xml" freq="60" friendlyPos="x" id="69_e2det_-217_1" lane="-217_1" length="60" pos="6.190000000000007"/>
    <laneAreaDetector file="e2_Static.output.xml" freq="60" friendlyPos="x" id="69_e2det_-219_0" lane="-219_0" length="60" pos="147.91"/>
    <laneAreaDetector file="e2_Static.output.xml" freq="60" friendlyPos="x" id="69_e2det_-219_1" lane="-219_1" length="60" pos="147.91"/>
    <laneAreaDetector file="e2_Static.output.xml" freq="60" friendlyPos="x" id="69_e2det_-219_2" lane="-219_2" length="60" pos="147.91"/>
    <laneAreaDetector file="e2_Static.output.xml" freq="60" friendlyPos="x" id="69_e2det_70_0" lane="70_0" length="60" pos="58.54"/>
    <laneAreaDetector file="e2_Static.output.xml" freq="60" friendlyPos="x" id="178_e2det_-222_0" lane="-222_0" length="60" pos="63.87"/>
    <laneAreaDetector file="e2_Static.output.xml" freq="60" friendlyPos="x" id="178_e2det_-222_1" lane="-222_1" length="60" pos="63.87"/>
    <laneAreaDetector file="e2_Static.output.xml" freq="60" friendlyPos="x" id="178_e2det_-222_2" lane="-222_2" length="60" pos="63.87"/>
    <laneAreaDetector file="e2_Static.output.xml" freq="60" friendlyPos="x" id="178_e2det_179_0" lane="179_0" length="60" pos="53.88999999999999"/>
    <laneAreaDetector file="e2_Static.output.xml" freq="60" friendlyPos="x" id="178_e2det_179_1" lane="179_1" length="60" pos="53.88999999999999"/>
    <laneAreaDetector file="e2_Static.output.xml" freq="60" friendlyPos="x" id="178_e2det_179_2" lane="179_2" length="60" pos="53.88999999999999"/>
    <laneAreaDetector file="e2_Static.output.xml" freq="60" friendlyPos="x" id="212_e2det_-230_0" lane="-230_0" length="60" pos="51.37"/>
    <laneAreaDetector file="e2_Static.output.xml" freq="60" friendlyPos="x" id="212_e2det_213_0" lane="213_0" length="60" pos="170.33"/>
    <laneAreaDetector file="e2_Static.output.xml" freq="60" friendlyPos="x" id="216_e2det_-232_0" lane="-232_0" length="60" pos="56.330000000000005"/>
    <laneAreaDetector file="e2_Static.output.xml" freq="60" friendlyPos="x" id="216_e2det_-232_1" lane="-232_1" length="60" pos="56.330000000000005"/>
    <laneAreaDetector file="e2_Static.output.xml" freq="60" friendlyPos="x" id="216_e2det_-232_2" lane="-232_2" length="60" pos="56.330000000000005"/>
    <laneAreaDetector file="e2_Static.output.xml" freq="60" friendlyPos="x" id="216_e2det_-232_3" lane="-232_3" length="60" pos="56.330000000000005"/>
    <laneAreaDetector file="e2_Static.output.xml" freq="60" friendlyPos="x" id="216_e2det_-232_4" lane="-232_4" length="60" pos="56.330000000000005"/>
    <laneAreaDetector file="e2_Static.output.xml" freq="60" friendlyPos="x" id="216_e2det_-232_5" lane="-232_5" length="60" pos="56.330000000000005"/>
    <laneAreaDetector file="e2_Static.output.xml" freq="60" friendlyPos="x" id="216_e2det_-236_0" lane="-236_0" length="60" pos="127.1"/>
    <laneAreaDetector file="e2_Static.output.xml" freq="60" friendlyPos="x" id="216_e2det_-238_0" lane="-238_0" length="60" pos="97.45000000000002"/>
    <laneAreaDetector file="e2_Static.output.xml" freq="60" friendlyPos="x" id="216_e2det_-238_1" lane="-238_1" length="60" pos="97.45000000000002"/>
    <laneAreaDetector file="e2_Static.output.xml" freq="60" friendlyPos="x" id="216_e2det_-238_2" lane="-238_2" length="60" pos="97.45000000000002"/>
    <laneAreaDetector file="e2_Static.output.xml" freq="60" friendlyPos="x" id="216_e2det_-238_3" lane="-238_3" length="60" pos="97.45000000000002"/>
    <laneAreaDetector file="e2_Static.output.xml" freq="60" friendlyPos="x" id="216_e2det_-238_4" lane="-238_4" length="60" pos="97.45000000000002"/>
    <laneAreaDetector file="e2_Static.output.xml" freq="60" friendlyPos="x" id="216_e2det_-238_5" lane="-238_5" length="60" pos="97.45000000000002"/>
    <laneAreaDetector file="e2_Static.output.xml" freq="60" friendlyPos="x" id="216_e2det_217_0" lane="217_0" length="60" pos="6.190000000000007"/>
    <laneAreaDetector file="e2_Static.output.xml" freq="60" friendlyPos="x" id="216_e2det_217_1" lane="217_1" length="60" pos="6.190000000000007"/>
    <laneAreaDetector file="e2_Static.output.xml" freq="60" friendlyPos="x" id="229_e2det_-352_0" lane="-352_0" length="60" pos="84.18"/>
    <laneAreaDetector file="e2_Static.output.xml" freq="60" friendlyPos="x" id="229_e2det_-352_1" lane="-352_1" length="60" pos="84.18"/>
    <laneAreaDetector file="e2_Static.output.xml" freq="60" friendlyPos="x" id="229_e2det_-352_2" lane="-352_2" length="60" pos="84.18"/>
    <laneAreaDetector file="e2_Static.output.xml" freq="60" friendlyPos="x" id="229_e2det_-352_3" lane="-352_3" length="60" pos="84.18"/>
    <laneAreaDetector file="e2_Static.output.xml" freq="60" friendlyPos="x" id="229_e2det_230_0" lane="230_0" length="60" pos="51.37"/>
    <laneAreaDetector file="e2_Static.output.xml" freq="60" friendlyPos="x" id="229_e2det_230_1" lane="230_1" length="60" pos="51.37"/>
    <laneAreaDetector file="e2_Static.output.xml" freq="60" friendlyPos="x" id="229_e2det_230_2" lane="230_2" length="60" pos="51.37"/>
    <laneAreaDetector file="e2_Static.output.xml" freq="60" friendlyPos="x" id="229_e2det_230_3" lane="230_3" length="60" pos="51.37"/>
    <laneAreaDetector file="e2_Static.output.xml" freq="60" friendlyPos="x" id="235_e2det_-355_0" lane="-355_0" length="60" pos="42.57"/>
    <laneAreaDetector file="e2_Static.output.xml" freq="60" friendlyPos="x" id="235_e2det_236_0" lane="236_0" length="60" pos="127.1"/>
    <laneAreaDetector file="e2_Static.output.xml" freq="60" friendlyPos="x" id="237_e2det_-361_0" lane="-361_0" length="60" pos="44.830000000000005"/>
    <laneAreaDetector file="e2_Static.output.xml" freq="60" friendlyPos="x" id="237_e2det_-361_1" lane="-361_1" length="60" pos="44.830000000000005"/>
    <laneAreaDetector file="e2_Static.output.xml" freq="60" friendlyPos="x" id="237_e2det_-361_2" lane="-361_2" length="60" pos="44.830000000000005"/>
    <laneAreaDetector file="e2_Static.output.xml" freq="60" friendlyPos="x" id="237_e2det_-361_3" lane="-361_3" length="60" pos="44.830000000000005"/>
    <laneAreaDetector file="e2_Static.output.xml" freq="60" friendlyPos="x" id="237_e2det_-361_4" lane="-361_4" length="60" pos="44.830000000000005"/>
    <laneAreaDetector file="e2_Static.output.xml" freq="60" friendlyPos="x" id="237_e2det_-375_0" lane="-375_0" length="60" pos="109.70000000000002"/>
    <laneAreaDetector file="e2_Static.output.xml" freq="60" friendlyPos="x" id="237_e2det_-375_1" lane="-375_1" length="60" pos="109.70000000000002"/>
    <laneAreaDetector file="e2_Static.output.xml" freq="60" friendlyPos="x" id="237_e2det_-375_2" lane="-375_2" length="60" pos="109.70000000000002"/>
    <laneAreaDetector file="e2_Static.output.xml" freq="60" friendlyPos="x" id="237_e2det_-375_3" lane="-375_3" length="60" pos="109.70000000000002"/>
    <laneAreaDetector file="e2_Static.output.xml" freq="60" friendlyPos="x" id="237_e2det_-375_4" lane="-375_4" length="60" pos="109.70000000000002"/>
    <laneAreaDetector file="e2_Static.output.xml" freq="60" friendlyPos="x" id="237_e2det_238_0" lane="238_0" length="60" pos="97.45000000000002"/>
    <laneAreaDetector file="e2_Static.output.xml" freq="60" friendlyPos="x" id="237_e2det_238_1" lane="238_1" length="60" pos="97.45000000000002"/>
    <laneAreaDetector file="e2_Static.output.xml" freq="60" friendlyPos="x" id="237_e2det_238_2" lane="238_2" length="60" pos="97.45000000000002"/>
    <laneAreaDetector file="e2_Static.output.xml" freq="60" friendlyPos="x" id="237_e2det_238_3" lane="238_3" length="60" pos="97.45000000000002"/>
    <laneAreaDetector file="e2_Static.output.xml" freq="60" friendlyPos="x" id="237_e2det_238_4" lane="238_4" length="60" pos="97.45000000000002"/>
    <laneAreaDetector file="e2_Static.output.xml" freq="60" friendlyPos="x" id="237_e2det_238_5" lane="238_5" length="60" pos="97.45000000000002"/>
    <laneAreaDetector file="e2_Static.output.xml" freq="60" friendlyPos="x" id="202_e2det_-480_0" lane="-480_0" length="60" pos="124.03"/>
    <laneAreaDetector file="e2_Static.output.xml" freq="60" friendlyPos="x" id="202_e2det_-480_1" lane="-480_1" length="60" pos="124.03"/>
    <laneAreaDetector file="e2_Static.output.xml" freq="60" friendlyPos="x" id="202_e2det_-480_2" lane="-480_2" length="60" pos="124.03"/>
    <laneAreaDetector file="e2_Static.output.xml" freq="60" friendlyPos="x" id="202_e2det_-480_4" lane="-480_4" length="60" pos="124.03"/>
    <laneAreaDetector file="e2_Static.output.xml" freq="60" friendlyPos="x" id="202_e2det_203_0" lane="203_0" length="60" pos="52.839999999999996"/>
    <laneAreaDetector file="e2_Static.output.xml" freq="60" friendlyPos="x" id="202_e2det_203_1" lane="203_1" length="60" pos="52.839999999999996"/>
    <laneAreaDetector file="e2_Static.output.xml" freq="60" friendlyPos="x" id="202_e2det_222_0" lane="222_0" length="60" pos="63.87"/>
    <laneAreaDetector file="e2_Static.output.xml" freq="60" friendlyPos="x" id="202_e2det_222_1" lane="222_1" length="60" pos="63.87"/>
    <laneAreaDetector file="e2_Static.output.xml" freq="60" friendlyPos="x" id="202_e2det_222_2" lane="222_2" length="60" pos="63.87"/>
    <laneAreaDetector file="e2_Static.output.xml" freq="60" friendlyPos="x" id="10_e2det_-484_0" lane="-484_0" length="60" pos="39.449999999999996"/>
    <laneAreaDetector file="e2_Static.output.xml" freq="60" friendlyPos="x" id="10_e2det_-484_1" lane="-484_1" length="60" pos="39.449999999999996"/>
    <laneAreaDetector file="e2_Static.output.xml" freq="60" friendlyPos="x" id="10_e2det_-484_2" lane="-484_2" length="60" pos="39.449999999999996"/>
    <laneAreaDetector file="e2_Static.output.xml" freq="60" friendlyPos="x" id="10_e2det_-484_3" lane="-484_3" length="60" pos="39.449999999999996"/>
    <laneAreaDetector file="e2_Static.output.xml" freq="60" friendlyPos="x" id="10_e2det_11_0" lane="11_0" length="60" pos="78.95000000000002"/>
    <laneAreaDetector file="e2_Static.output.xml" freq="60" friendlyPos="x" id="10_e2det_11_1" lane="11_1" length="60" pos="78.95000000000002"/>
    <laneAreaDetector file="e2_Static.output.xml" freq="60" friendlyPos="x" id="10_e2det_11_2" lane="11_2" length="60" pos="78.95000000000002"/>
    <laneAreaDetector file="e2_Static.output.xml" freq="60" friendlyPos="x" id="10_e2det_11_3" lane="11_3" length="60" pos="78.95000000000002"/>
    <laneAreaDetector file="e2_Static.output.xml" freq="60" friendlyPos="x" id="351_e2det_-486_0" lane="-486_0" length="60" pos="55.74999999999999"/>
    <laneAreaDetector file="e2_Static.output.xml" freq="60" friendlyPos="x" id="351_e2det_352_0" lane="352_0" length="60" pos="84.18"/>
    <laneAreaDetector file="e2_Static.output.xml" freq="60" friendlyPos="x" id="351_e2det_352_1" lane="352_1" length="60" pos="84.18"/>
    <laneAreaDetector file="e2_Static.output.xml" freq="60" friendlyPos="x" id="351_e2det_352_2" lane="352_2" length="60" pos="84.18"/>
    <laneAreaDetector file="e2_Static.output.xml" freq="60" friendlyPos="x" id="351_e2det_352_3" lane="352_3" length="60" pos="84.18"/>
    <laneAreaDetector file="e2_Static.output.xml" freq="60" friendlyPos="x" id="351_e2det_480_0" lane="480_0" length="60" pos="124.03"/>
    <laneAreaDetector file="e2_Static.output.xml" freq="60" friendlyPos="x" id="351_e2det_480_1" lane="480_1" length="60" pos="124.03"/>
    <laneAreaDetector file="e2_Static.output.xml" freq="60" friendlyPos="x" id="351_e2det_480_2" lane="480_2" length="60" pos="124.03"/>
    <laneAreaDetector file="e2_Static.output.xml" freq="60" friendlyPos="x" id="351_e2det_480_3" lane="480_3" length="60" pos="124.03"/>
    <laneAreaDetector file="e2_Static.output.xml" freq="60" friendlyPos="x" id="351_e2det_480_4" lane="480_4" length="60" pos="124.03"/>
    <laneAreaDetector file="e2_Static.output.xml" freq="60" friendlyPos="x" id="354_e2det_-501_0" lane="-501_0" length="60" pos="61.9"/>
    <laneAreaDetector file="e2_Static.output.xml" freq="60" friendlyPos="x" id="354_e2det_-501_1" lane="-501_1" length="60" pos="61.9"/>
    <laneAreaDetector file="e2_Static.output.xml" freq="60" friendlyPos="x" id="354_e2det_-501_2" lane="-501_2" length="60" pos="61.9"/>
    <laneAreaDetector file="e2_Static.output.xml" freq="60" friendlyPos="x" id="354_e2det_-501_3" lane="-501_3" length="60" pos="61.9"/>
    <laneAreaDetector file="e2_Static.output.xml" freq="60" friendlyPos="x" id="354_e2det_-567_0" lane="-567_0" length="60" pos="125.85"/>
    <laneAreaDetector file="e2_Static.output.xml" freq="60" friendlyPos="x" id="354_e2det_-567_1" lane="-567_1" length="60" pos="125.85"/>
    <laneAreaDetector file="e2_Static.output.xml" freq="60" friendlyPos="x" id="354_e2det_355_0" lane="355_0" length="60" pos="42.57"/>
    <laneAreaDetector file="e2_Static.output.xml" freq="60" friendlyPos="x" id="354_e2det_355_1" lane="355_1" length="60" pos="42.57"/>
    <laneAreaDetector file="e2_Static.output.xml" freq="60" friendlyPos="x" id="354_e2det_355_2" lane="355_2" length="60" pos="42.57"/>
    <laneAreaDetector file="e2_Static.output.xml" freq="60" friendlyPos="x" id="354_e2det_355_3" lane="355_3" length="60" pos="42.57"/>
    <laneAreaDetector file="e2_Static.output.xml" freq="60" friendlyPos="x" id="354_e2det_355_4" lane="355_4" length="60" pos="42.57"/>
    <laneAreaDetector file="e2_Static.output.xml" freq="60" friendlyPos="x" id="374_e2det_-673_0" lane="-673_0" length="60" pos="36.26"/>
    <laneAreaDetector file="e2_Static.output.xml" freq="60" friendlyPos="x" id="374_e2det_-673_1" lane="-673_1" length="60" pos="36.26"/>
    <laneAreaDetector file="e2_Static.output.xml" freq="60" friendlyPos="x" id="374_e2det_-673_2" lane="-673_2" length="60" pos="36.26"/>
    <laneAreaDetector file="e2_Static.output.xml" freq="60" friendlyPos="x" id="374_e2det_-673_3" lane="-673_3" length="60" pos="36.26"/>
    <laneAreaDetector file="e2_Static.output.xml" freq="60" friendlyPos="x" id="374_e2det_375_0" lane="375_0" length="60" pos="109.70000000000002"/>
    <laneAreaDetector file="e2_Static.output.xml" freq="60" friendlyPos="x" id="374_e2det_375_1" lane="375_1" length="60" pos="109.70000000000002"/>
    <laneAreaDetector file="e2_Static.output.xml" freq="60" friendlyPos="x" id="374_e2det_375_2" lane="375_2" length="60" pos="109.70000000000002"/>
    <laneAreaDetector file="e2_Static.output.xml" freq="60" friendlyPos="x" id="374_e2det_375_3" lane="375_3" length="60" pos="109.70000000000002"/>
    <laneAreaDetector file="e2_Static.output.xml" freq="60" friendlyPos="x" id="374_e2det_375_4" lane="375_4" length="60" pos="109.70000000000002"/>
    <laneAreaDetector file="e2_Static.output.xml" freq="60" friendlyPos="x" id="374_e2det_484_0" lane="484_0" length="60" pos="39.449999999999996"/>
    <laneAreaDetector file="e2_Static.output.xml" freq="60" friendlyPos="x" id="374_e2det_484_1" lane="484_1" length="60" pos="39.449999999999996"/>
    <laneAreaDetector file="e2_Static.output.xml" freq="60" friendlyPos="x" id="374_e2det_484_2" lane="484_2" length="60" pos="39.449999999999996"/>
    <laneAreaDetector file="e2_Static.output.xml" freq="60" friendlyPos="x" id="374_e2det_484_3" lane="484_3" length="60" pos="39.449999999999996"/>
    <laneAreaDetector file="e2_Static.output.xml" freq="60" friendlyPos="x" id="374_e2det_484_4" lane="484_4" length="60" pos="39.449999999999996"/>
    <laneAreaDetector file="e2_Static.output.xml" freq="60" friendlyPos="x" id="12_e2det_-68_0" lane="-68_0" length="60" pos="120.82"/>
    <laneAreaDetector file="e2_Static.output.xml" freq="60" friendlyPos="x" id="12_e2det_-68_1" lane="-68_1" length="60" pos="120.82"/>
    <laneAreaDetector file="e2_Static.output.xml" freq="60" friendlyPos="x" id="12_e2det_-68_2" lane="-68_2" length="60" pos="120.82"/>
    <laneAreaDetector file="e2_Static.output.xml" freq="60" friendlyPos="x" id="12_e2det_-68_3" lane="-68_3" length="60" pos="120.82"/>
    <laneAreaDetector file="e2_Static.output.xml" freq="60" friendlyPos="x" id="12_e2det_-70_0" lane="-70_0" length="60" pos="58.54"/>
    <laneAreaDetector file="e2_Static.output.xml" freq="60" friendlyPos="x" id="12_e2det_13_0" lane="13_0" length="60" pos="37.4"/>
    <laneAreaDetector file="e2_Static.output.xml" freq="60" friendlyPos="x" id="12_e2det_13_1" lane="13_1" length="60" pos="37.4"/>
    <laneAreaDetector file="e2_Static.output.xml" freq="60" friendlyPos="x" id="12_e2det_13_2" lane="13_2" length="60" pos="37.4"/>
    <laneAreaDetector file="e2_Static.output.xml" freq="60" friendlyPos="x" id="12_e2det_13_3" lane="13_3" length="60" pos="37.4"/>
    <laneAreaDetector file="e2_Static.output.xml" freq="60" friendlyPos="x" id="12_e2det_15_0" lane="15_0" length="60" pos="129.99"/>
    <laneAreaDetector file="e2_Static.output.xml" freq="60" friendlyPos="x" id="12_e2det_15_1" lane="15_1" length="60" pos="129.99"/>
    <laneAreaDetector file="e2_Static.output.xml" freq="60" friendlyPos="x" id="24_e2det_-680_0" lane="-680_0" length="60" pos="72.20000000000002"/>
    <laneAreaDetector file="e2_Static.output.xml" freq="60" friendlyPos="x" id="24_e2det_-680_1" lane="-680_1" length="60" pos="72.20000000000002"/>
    <laneAreaDetector file="e2_Static.output.xml" freq="60" friendlyPos="x" id="24_e2det_25_0" lane="25_0" length="60" pos="118.95000000000002"/>
    <laneAreaDetector file="e2_Static.output.xml" freq="60" friendlyPos="x" id="24_e2det_25_1" lane="25_1" length="60" pos="118.95000000000002"/>
    <laneAreaDetector file="e2_Static.output.xml" freq="60" friendlyPos="x" id="672_e2det_-690_0" lane="-690_0" length="60" pos="89.86000000000001"/>
    <laneAreaDetector file="e2_Static.output.xml" freq="60" friendlyPos="x" id="672_e2det_-690_1" lane="-690_1" length="60" pos="89.86000000000001"/>
    <laneAreaDetector file="e2_Static.output.xml" freq="60" friendlyPos="x" id="672_e2det_673_0" lane="673_0" length="60" pos="36.26"/>
    <laneAreaDetector file="e2_Static.output.xml" freq="60" friendlyPos="x" id="672_e2det_673_1" lane="673_1" length="60" pos="36.26"/>
    <laneAreaDetector file="e2_Static.output.xml" freq="60" friendlyPos="x" id="174_e2det_175_0" lane="175_0" length="60" pos="130.48000000000002"/>
    <laneAreaDetector file="e2_Static.output.xml" freq="60" friendlyPos="x" id="174_e2det_486_0" lane="486_0" length="60" pos="55.74999999999999"/>
    <laneAreaDetector file="e2_Static.output.xml" freq="60" friendlyPos="x" id="6_e2det_205_0" lane="205_0" length="60" pos="27.270000000000003"/>
    <laneAreaDetector file="e2_Static.output.xml" freq="60" friendlyPos="x" id="6_e2det_205_1" lane="205_1" length="60" pos="27.270000000000003"/>
    <laneAreaDetector file="e2_Static.output.xml" freq="60" friendlyPos="x" id="6_e2det_205_2" lane="205_2" length="60" pos="27.270000000000003"/>
    <laneAreaDetector file="e2_Static.output.xml" freq="60" friendlyPos="x" id="6_e2det_205_3" lane="205_3" length="60" pos="27.270000000000003"/>
    <laneAreaDetector file="e2_Static.output.xml" freq="60" friendlyPos="x" id="6_e2det_7_0" lane="7_0" length="60" pos="100.91"/>
    <laneAreaDetector file="e2_Static.output.xml" freq="60" friendlyPos="x" id="6_e2det_7_1" lane="7_1" length="60" pos="100.91"/>
    <laneAreaDetector file="e2_Static.output.xml" freq="60" friendlyPos="x" id="6_e2det_7_2" lane="7_2" length="60" pos="100.91"/>
    <laneAreaDetector file="e2_Static.output.xml" freq="60" friendlyPos="x" id="6_e2det_7_3" lane="7_3" length="60" pos="100.91"/>
    <laneAreaDetector file="e2_Static.output.xml" freq="60" friendlyPos="x" id="679_e2det_680_0" lane="680_0" length="60" pos="72.20000000000002"/>
    <laneAreaDetector file="e2_Static.output.xml" freq="60" friendlyPos="x" id="679_e2det_680_1" lane="680_1" length="60" pos="72.20000000000002"/>
    <laneAreaDetector file="e2_Static.output.xml" freq="60" friendlyPos="x" id="679_e2det_680_2" lane="680_2" length="60" pos="72.20000000000002"/>
    <laneAreaDetector file="e2_Static.output.xml" freq="60" friendlyPos="x" id="679_e2det_682_0" lane="682_0" length="60" pos="58.279999999999994"/>
    <laneAreaDetector file="e2_Static.output.xml" freq="60" friendlyPos="x" id="679_e2det_682_1" lane="682_1" length="60" pos="58.279999999999994"/>
    <laneAreaDetector file="e2_Static.output.xml" freq="60" friendlyPos="x" id="679_e2det_682_2" lane="682_2" length="60" pos="58.279999999999994"/>
</additional>
