<additional xmlns:xsi="http://www.w3.org/2001/XMLSchema-instance" xsi:noNamespaceSchemaLocation="http://sumo.dlr.de/xsd/additional_file.xsd">
    <laneAreaDetector file="e2_Static.output.xml" freq="60" friendlyPos="x" id="1_e2det_-11_0" lane="-11_0" length="60" pos="97.38"/>
    <laneAreaDetector file="e2_Static.output.xml" freq="60" friendlyPos="x" id="1_e2det_-3_0" lane="-3_0" length="60" pos="169.26000000000002"/>
    <laneAreaDetector file="e2_Static.output.xml" freq="60" friendlyPos="x" id="1_e2det_-3_1" lane="-3_1" length="60" pos="169.26000000000002"/>
    <laneAreaDetector file="e2_Static.output.xml" freq="60" friendlyPos="x" id="1_e2det_-7_0" lane="-7_0" length="60" pos="143.74"/>
    <laneAreaDetector file="e2_Static.output.xml" freq="60" friendlyPos="x" id="1_e2det_-7_1" lane="-7_1" length="60" pos="143.74"/>
    <laneAreaDetector file="e2_Static.output.xml" freq="60" friendlyPos="x" id="1_e2det_-7_2" lane="-7_2" length="60" pos="143.74"/>
    <laneAreaDetector file="e2_Static.output.xml" freq="60" friendlyPos="x" id="1_e2det_-9_0" lane="-9_0" length="60" pos="140.38"/>
</additional>
