<?xml version="1.0" encoding="UTF-8"?>

<!-- generated on 06/21/18 18:55:51 by Eclipse SUMO netgenerate Version v0_32_0+1445-5aa8ffc0a4
<configuration xmlns:xsi="http://www.w3.org/2001/XMLSchema-instance" xsi:noNamespaceSchemaLocation="http://sumo.dlr.de/xsd/netgenerateConfiguration.xsd">

    <random_network>
        <rand value="true"/>
        <rand.iterations value="30"/>
        <rand.neighbor-dist1 value="10"/>
        <rand.neighbor-dist2 value="10"/>
        <rand.neighbor-dist3 value="10"/>
        <rand.neighbor-dist4 value="10"/>
        <rand.neighbor-dist5 value="10"/>
        <rand.neighbor-dist6 value="10"/>
        <rand.random-lanenumber value="true"/>
    </random_network>

    <output>
        <output-file value="./random/random.net.xml"/>
    </output>

    <processing>
        <no-turnarounds value="true"/>
    </processing>

    <building_defaults>
        <default.lanenumber value="6"/>
        <default-junction-type value="traffic_light_right_on_red"/>
    </building_defaults>

</configuration>
-->

<net version="0.27" xmlns:xsi="http://www.w3.org/2001/XMLSchema-instance" xsi:noNamespaceSchemaLocation="http://sumo.dlr.de/xsd/net_file.xsd">

    <location netOffset="448.66,472.48" convBoundary="0.00,0.00,1049.96,719.18" origBoundary="-448.66,-472.48,601.29,246.70" projParameter="!"/>

    <edge id=":1_0" function="internal">
        <lane id=":1_0_0" index="0" speed="13.90" length="5.38" shape="437.76,491.24 437.52,489.72 436.85,488.78 435.75,488.44 434.23,488.68"/>
    </edge>
    <edge id=":1_1" function="internal">
        <lane id=":1_1_0" index="0" speed="13.90" length="31.82" shape="437.76,491.24 438.45,481.14 440.04,473.43 441.23,466.84 440.75,460.07"/>
        <lane id=":1_1_1" index="1" speed="13.90" length="31.82" shape="440.96,491.19 441.63,480.83 443.19,472.91 444.36,466.16 443.86,459.33"/>
    </edge>
    <edge id=":1_3" function="internal">
        <lane id=":1_3_0" index="0" speed="13.90" length="9.76" shape="447.36,491.09 448.26,482.26 448.65,481.46"/>
    </edge>
    <edge id=":1_21" function="internal">
        <lane id=":1_21_0" index="0" speed="13.90" length="19.66" shape="448.65,481.46 451.29,476.04 456.44,472.44 463.72,471.45"/>
    </edge>
    <edge id=":1_4" function="internal">
        <lane id=":1_4_0" index="0" speed="13.90" length="8.14" shape="463.23,484.24 461.85,484.61 460.87,485.84 460.31,487.93 460.15,490.89"/>
    </edge>
    <edge id=":1_5" function="internal">
        <lane id=":1_5_0" index="0" speed="13.90" length="31.24" shape="463.23,484.24 454.49,484.09 448.49,484.62 442.61,486.08 434.23,488.68"/>
        <lane id=":1_5_1" index="1" speed="13.90" length="31.24" shape="463.36,481.04 454.29,480.88 448.07,481.43 441.97,482.93 433.28,485.63"/>
        <lane id=":1_5_2" index="2" speed="13.90" length="31.24" shape="463.48,477.84 454.09,477.67 447.64,478.23 441.33,479.78 432.33,482.57"/>
        <lane id=":1_5_3" index="3" speed="13.90" length="31.24" shape="463.60,474.64 453.88,474.47 447.22,475.04 440.69,476.63 431.38,479.52"/>
    </edge>
    <edge id=":1_9" function="internal">
        <lane id=":1_9_0" index="0" speed="13.90" length="8.65" shape="463.60,474.64 456.29,473.46 455.18,472.89"/>
    </edge>
    <edge id=":1_22" function="internal">
        <lane id=":1_22_0" index="0" speed="13.90" length="18.43" shape="455.18,472.89 450.56,470.51 446.42,465.80 443.86,459.33"/>
    </edge>
    <edge id=":1_10" function="internal">
        <lane id=":1_10_0" index="0" speed="13.90" length="15.12" shape="450.08,457.83 451.28,459.40 454.01,460.60 458.28,461.42 464.08,461.85"/>
    </edge>
    <edge id=":1_11" function="internal">
        <lane id=":1_11_0" index="0" speed="13.90" length="33.32" shape="450.08,457.83 452.11,464.73 454.30,471.69 456.10,480.00 456.96,490.94"/>
        <lane id=":1_11_1" index="1" speed="13.90" length="33.32" shape="446.97,458.58 448.98,465.42 451.14,472.22 452.91,480.31 453.76,490.99"/>
        <lane id=":1_11_2" index="2" speed="13.90" length="33.32" shape="446.97,458.58 448.48,465.46 449.54,472.33 450.22,480.45 450.56,491.04"/>
    </edge>
    <edge id=":1_14" function="internal">
        <lane id=":1_14_0" index="0" speed="13.90" length="12.31" shape="446.97,458.58 447.35,465.51 445.24,470.45"/>
    </edge>
    <edge id=":1_23" function="internal">
        <lane id=":1_23_0" index="0" speed="13.90" length="16.92" shape="445.24,470.45 444.87,471.30 439.55,475.97 431.38,479.52"/>
    </edge>
    <edge id=":1_15" function="internal">
        <lane id=":1_15_0" index="0" speed="13.90" length="15.55" shape="427.59,467.29 433.61,465.23 437.81,463.34 440.19,461.62 440.75,460.07"/>
    </edge>
    <edge id=":1_16" function="internal">
        <lane id=":1_16_0" index="0" speed="13.90" length="35.59" shape="427.59,467.29 438.13,464.04 445.53,462.26 453.08,461.64 464.08,461.85"/>
        <lane id=":1_16_1" index="1" speed="13.90" length="35.59" shape="428.54,470.35 438.77,467.18 445.95,465.45 453.28,464.85 463.96,465.05"/>
        <lane id=":1_16_2" index="2" speed="13.90" length="35.59" shape="429.49,473.40 439.41,470.33 446.38,468.65 453.48,468.05 463.84,468.25"/>
        <lane id=":1_16_3" index="3" speed="13.90" length="35.59" shape="430.43,476.46 440.05,473.48 446.80,471.84 453.68,471.26 463.72,471.45"/>
    </edge>
    <edge id=":1_20" function="internal">
        <lane id=":1_20_0" index="0" speed="13.90" length="9.42" shape="430.43,476.46 439.12,475.07 439.72,475.26"/>
    </edge>
    <edge id=":1_24" function="internal">
        <lane id=":1_24_0" index="0" speed="13.90" length="21.26" shape="439.72,475.26 445.36,477.03 449.18,482.36 450.56,491.04"/>
    </edge>
    <edge id=":10_0" function="internal">
        <lane id=":10_0_0" index="0" speed="13.90" length="30.21" shape="301.42,529.90 291.65,532.35 283.53,533.16 277.05,532.30 272.23,529.78"/>
    </edge>
    <edge id=":10_1" function="internal">
        <lane id=":10_1_0" index="0" speed="13.90" length="27.05" shape="300.47,526.84 291.51,529.14 284.16,529.99 278.42,529.39 274.28,527.33"/>
    </edge>
    <edge id=":10_2" function="internal">
        <lane id=":10_2_0" index="0" speed="13.90" length="23.90" shape="299.52,523.78 291.38,525.93 284.79,526.83 279.78,526.47 276.33,524.87"/>
    </edge>
    <edge id=":10_3" function="internal">
        <lane id=":10_3_0" index="0" speed="13.90" length="20.76" shape="298.57,520.73 291.24,522.72 285.43,523.66 281.14,523.56 278.38,522.42"/>
    </edge>
    <edge id=":10_4" function="internal">
        <lane id=":10_4_0" index="0" speed="13.90" length="18.85" shape="298.57,520.73 292.73,522.14 287.76,522.48 283.66,521.76 280.44,519.96"/>
    </edge>
    <edge id=":10_5" function="internal">
        <lane id=":10_5_0" index="0" speed="13.90" length="4.35" shape="290.70,507.68 291.63,508.31 292.63,508.65 293.68,508.71 294.78,508.50"/>
    </edge>
    <edge id=":10_6" function="internal">
        <lane id=":10_6_0" index="0" speed="13.90" length="7.55" shape="288.65,510.14 290.27,511.22 291.99,511.81 293.81,511.93 295.73,511.56"/>
    </edge>
    <edge id=":10_7" function="internal">
        <lane id=":10_7_0" index="0" speed="13.90" length="10.74" shape="286.59,512.59 288.91,514.13 291.36,514.98 293.95,515.14 296.68,514.61"/>
    </edge>
    <edge id=":10_8" function="internal">
        <lane id=":10_8_0" index="0" speed="13.90" length="13.94" shape="284.54,515.05 287.54,517.04 290.73,518.14 294.09,518.35 297.63,517.67"/>
    </edge>
    <edge id=":12_0" function="internal">
        <lane id=":12_0_0" index="0" speed="13.90" length="30.96" shape="529.32,312.27 524.13,308.71 517.46,308.30 509.26,308.34 499.45,306.13"/>
        <lane id=":12_0_1" index="1" speed="13.90" length="30.96" shape="529.32,312.27 524.29,308.24 517.99,306.79 510.18,305.80 500.63,303.16"/>
    </edge>
    <edge id=":12_2" function="internal">
        <lane id=":12_2_0" index="0" speed="13.90" length="43.95" shape="529.32,312.27 524.84,303.06 520.70,290.26 517.45,278.07 515.63,270.65"/>
    </edge>
    <edge id=":12_3" function="internal">
        <lane id=":12_3_0" index="0" speed="13.90" length="11.71" shape="531.89,310.36 528.01,303.89 527.07,299.82"/>
    </edge>
    <edge id=":12_19" function="internal">
        <lane id=":12_19_0" index="0" speed="13.90" length="11.13" shape="527.07,299.82 526.77,298.48 528.17,294.14 532.21,290.87"/>
    </edge>
    <edge id=":12_4" function="internal">
        <lane id=":12_4_0" index="0" speed="13.90" length="5.21" shape="538.03,302.28 536.83,303.12 536.27,304.11 536.33,305.25 537.03,306.54"/>
    </edge>
    <edge id=":12_5" function="internal">
        <lane id=":12_5_0" index="0" speed="13.90" length="38.57" shape="538.03,302.28 529.18,305.65 520.00,306.92 510.49,306.09 500.63,303.16"/>
    </edge>
    <edge id=":12_6" function="internal">
        <lane id=":12_6_0" index="0" speed="13.90" length="35.84" shape="536.57,299.43 528.38,302.55 519.85,303.71 511.00,302.92 501.82,300.18"/>
    </edge>
    <edge id=":12_7" function="internal">
        <lane id=":12_7_0" index="0" speed="13.90" length="33.12" shape="535.12,296.57 527.57,299.44 519.70,300.50 511.51,299.76 503.00,297.21"/>
    </edge>
    <edge id=":12_8" function="internal">
        <lane id=":12_8_0" index="0" speed="13.90" length="31.87" shape="535.12,296.57 529.07,298.53 521.90,298.79 513.60,297.36 504.18,294.24"/>
    </edge>
    <edge id=":12_9" function="internal">
        <lane id=":12_9_0" index="0" speed="13.90" length="32.94" shape="533.66,293.72 528.48,294.35 523.74,290.72 519.46,282.81 515.63,270.65"/>
    </edge>
    <edge id=":12_10" function="internal">
        <lane id=":12_10_0" index="0" speed="13.90" length="17.19" shape="518.74,269.86 520.74,276.33 522.92,280.56 525.29,282.56 527.84,282.32"/>
    </edge>
    <edge id=":12_11" function="internal">
        <lane id=":12_11_0" index="0" speed="13.90" length="41.77" shape="518.74,269.86 520.87,276.81 524.82,287.96 529.66,299.72 534.46,308.45"/>
    </edge>
    <edge id=":12_12" function="internal">
        <lane id=":12_12_0" index="0" speed="13.90" length="29.18" shape="518.74,269.86 520.99,283.96 519.32,292.72 514.21,295.84"/>
    </edge>
    <edge id=":12_13" function="internal">
        <lane id=":12_13_0" index="0" speed="13.90" length="35.26" shape="518.74,269.86 520.70,282.34 519.13,290.06 514.02,293.04 505.37,291.26"/>
    </edge>
    <edge id=":12_20" function="internal">
        <lane id=":12_20_0" index="0" speed="13.90" length="10.30" shape="514.21,295.84 513.71,296.14 504.18,294.24"/>
    </edge>
    <edge id=":12_14" function="internal">
        <lane id=":12_14_0" index="0" speed="13.90" length="6.09" shape="512.46,273.42 514.27,273.89 515.40,273.58 515.86,272.50 515.63,270.65"/>
    </edge>
    <edge id=":12_15" function="internal">
        <lane id=":12_15_0" index="0" speed="13.90" length="20.27" shape="511.28,276.40 519.83,279.90 525.68,282.53 528.84,284.29 529.30,285.17"/>
    </edge>
    <edge id=":12_16" function="internal">
        <lane id=":12_16_0" index="0" speed="13.90" length="23.97" shape="511.28,276.40 521.40,280.67 528.02,284.03 531.14,286.48 530.75,288.02"/>
    </edge>
    <edge id=":12_17" function="internal">
        <lane id=":12_17_0" index="0" speed="13.90" length="38.21" shape="510.10,279.37 520.96,285.47 527.99,292.60 532.80,299.90 537.03,306.54"/>
        <lane id=":12_17_1" index="1" speed="13.90" length="38.21" shape="508.91,282.34 519.23,288.14 525.81,294.92 530.34,301.93 534.46,308.45"/>
    </edge>
    <edge id=":174_0" function="internal">
        <lane id=":174_0_0" index="0" speed="13.90" length="4.57" shape="914.48,211.04 913.31,211.30 912.37,211.83 911.65,212.65 911.17,213.74"/>
    </edge>
    <edge id=":174_1" function="internal">
        <lane id=":174_1_0" index="0" speed="13.90" length="6.78" shape="914.48,211.04 911.83,211.35 909.88,211.76 908.64,212.25 908.10,212.82"/>
    </edge>
    <edge id=":174_2" function="internal">
        <lane id=":174_2_0" index="0" speed="13.90" length="9.55" shape="914.48,211.04 912.63,211.08 909.49,211.14 906.49,211.37 905.04,211.90"/>
    </edge>
    <edge id=":174_3" function="internal">
        <lane id=":174_3_0" index="0" speed="13.90" length="12.68" shape="914.48,211.04 908.87,211.47 904.92,211.60 902.62,211.44 901.97,210.98"/>
    </edge>
    <edge id=":174_4" function="internal">
        <lane id=":174_4_0" index="0" speed="13.90" length="24.96" shape="889.72,207.29 890.92,208.39 895.41,208.85 903.16,208.67 914.19,207.85"/>
    </edge>
    <edge id=":178_0" function="internal">
        <lane id=":178_0_0" index="0" speed="13.90" length="41.98" shape="937.47,514.02 930.74,524.72 923.42,528.74 915.51,526.07 907.01,516.71"/>
    </edge>
    <edge id=":178_1" function="internal">
        <lane id=":178_1_0" index="0" speed="13.90" length="34.35" shape="934.57,512.69 929.06,521.44 923.07,524.73 916.59,522.54 909.64,514.89"/>
    </edge>
    <edge id=":178_2" function="internal">
        <lane id=":178_2_0" index="0" speed="13.90" length="26.72" shape="931.66,511.36 927.37,518.17 922.71,520.72 917.68,519.02 912.27,513.07"/>
    </edge>
    <edge id=":178_3" function="internal">
        <lane id=":178_3_0" index="0" speed="13.90" length="3.82" shape="920.16,507.60 920.93,508.45 921.65,508.69 922.32,508.33 922.93,507.36"/>
    </edge>
    <edge id=":178_4" function="internal">
        <lane id=":178_4_0" index="0" speed="13.90" length="11.45" shape="917.53,509.42 919.85,511.97 922.01,512.70 924.00,511.61 925.84,508.69"/>
    </edge>
    <edge id=":178_5" function="internal">
        <lane id=":178_5_0" index="0" speed="13.90" length="19.08" shape="914.90,511.24 918.76,515.50 922.36,516.71 925.69,514.89 928.75,510.02"/>
    </edge>
    <edge id=":18_0" function="internal">
        <lane id=":18_0_0" index="0" speed="13.90" length="8.37" shape="842.09,423.00 840.24,420.63 838.55,419.08 837.02,418.36 835.66,418.47"/>
    </edge>
    <edge id=":18_1" function="internal">
        <lane id=":18_1_0" index="0" speed="13.90" length="33.25" shape="844.73,421.18 828.10,392.39"/>
    </edge>
    <edge id=":18_2" function="internal">
        <lane id=":18_2_0" index="0" speed="13.90" length="29.41" shape="847.36,419.36 843.10,412.07 840.62,405.02 839.91,398.21 840.96,391.64"/>
    </edge>
    <edge id=":18_3" function="internal">
        <lane id=":18_3_0" index="0" speed="13.90" length="26.24" shape="847.36,419.36 844.76,413.50 845.92,408.82 850.84,405.33 859.52,403.03"/>
    </edge>
    <edge id=":18_4" function="internal">
        <lane id=":18_4_0" index="0" speed="13.90" length="8.52" shape="860.54,409.35 857.36,410.09 855.42,411.10 854.72,412.36 855.25,413.89"/>
    </edge>
    <edge id=":18_5" function="internal">
        <lane id=":18_5_0" index="0" speed="13.90" length="27.25" shape="860.54,409.35 854.05,410.28 848.46,411.14 842.39,412.65 834.46,415.50"/>
        <lane id=":18_5_1" index="1" speed="13.90" length="27.25" shape="860.03,406.19 853.48,407.13 847.73,408.03 841.44,409.60 833.26,412.53"/>
    </edge>
    <edge id=":18_7" function="internal">
        <lane id=":18_7_0" index="0" speed="13.90" length="7.12" shape="860.03,406.19 852.92,406.44"/>
    </edge>
    <edge id=":18_8" function="internal">
        <lane id=":18_8_0" index="0" speed="13.90" length="27.51" shape="860.03,406.19 851.11,406.62 845.46,404.49 843.10,399.81 844.03,392.56"/>
    </edge>
    <edge id=":18_24" function="internal">
        <lane id=":18_24_0" index="0" speed="13.90" length="29.62" shape="852.92,406.44 850.69,406.51 842.26,404.32 834.73,399.61 828.10,392.39"/>
    </edge>
    <edge id=":18_9" function="internal">
        <lane id=":18_9_0" index="0" speed="13.90" length="5.96" shape="856.28,396.25 855.97,398.08 856.32,399.29 857.33,399.89 859.01,399.87"/>
    </edge>
    <edge id=":18_10" function="internal">
        <lane id=":18_10_0" index="0" speed="13.90" length="19.98" shape="856.28,396.25 854.11,403.94 852.77,409.75 852.27,413.67 852.62,415.72"/>
    </edge>
    <edge id=":18_11" function="internal">
        <lane id=":18_11_0" index="0" speed="13.90" length="30.01" shape="853.22,395.33 850.06,403.63 846.08,410.25 841.28,415.20 835.66,418.47"/>
    </edge>
    <edge id=":18_12" function="internal">
        <lane id=":18_12_0" index="0" speed="13.90" length="27.14" shape="850.16,394.41 847.28,402.03 843.70,408.08 839.43,412.57 834.46,415.50"/>
    </edge>
    <edge id=":18_13" function="internal">
        <lane id=":18_13_0" index="0" speed="13.90" length="24.28" shape="847.09,393.49 844.50,400.42 841.33,405.91 837.58,409.95 833.26,412.53"/>
    </edge>
    <edge id=":18_14" function="internal">
        <lane id=":18_14_0" index="0" speed="13.90" length="27.33" shape="847.09,393.49 843.91,400.05 839.69,402.05 834.42,399.50 828.10,392.39"/>
    </edge>
    <edge id=":18_15" function="internal">
        <lane id=":18_15_0" index="0" speed="13.90" length="6.16" shape="830.69,390.50 831.99,391.89 833.12,392.24 834.06,391.54 834.83,389.80"/>
    </edge>
    <edge id=":18_16" function="internal">
        <lane id=":18_16_0" index="0" speed="13.90" length="31.46" shape="830.69,390.50 835.87,395.77 842.31,399.08 850.02,400.45 859.01,399.87"/>
    </edge>
    <edge id=":18_17" function="internal">
        <lane id=":18_17_0" index="0" speed="13.90" length="33.41" shape="830.69,390.50 852.62,415.72"/>
    </edge>
    <edge id=":18_18" function="internal">
        <lane id=":18_18_0" index="0" speed="13.90" length="25.69" shape="830.69,390.50 835.72,398.57 837.82,404.93 837.01,409.58 833.26,412.53"/>
    </edge>
    <edge id=":18_19" function="internal">
        <lane id=":18_19_0" index="0" speed="13.90" length="13.07" shape="829.68,403.63 831.49,402.15 831.84,399.79 830.71,396.53 828.10,392.39"/>
    </edge>
    <edge id=":18_20" function="internal">
        <lane id=":18_20_0" index="0" speed="13.90" length="15.72" shape="829.68,403.63 832.04,402.07 834.20,399.40 836.15,395.62 837.90,390.72"/>
    </edge>
    <edge id=":18_21" function="internal">
        <lane id=":18_21_0" index="0" speed="13.90" length="29.42" shape="829.68,403.63 838.66,400.93 845.78,400.27 852.19,400.35 859.01,399.87"/>
        <lane id=":18_21_1" index="1" speed="13.90" length="29.42" shape="830.87,406.59 839.61,403.99 846.51,403.39 852.76,403.50 859.52,403.03"/>
    </edge>
    <edge id=":18_23" function="internal">
        <lane id=":18_23_0" index="0" speed="13.90" length="21.33" shape="832.07,409.56 836.82,408.60 841.39,409.60 845.78,412.58 849.99,417.54"/>
    </edge>
    <edge id=":2_0" function="internal">
        <lane id=":2_0_0" index="0" speed="13.90" length="63.65" shape="396.33,275.10 393.16,252.89 396.36,239.21 405.93,234.04 421.87,237.38"/>
    </edge>
    <edge id=":2_1" function="internal">
        <lane id=":2_1_0" index="0" speed="13.90" length="55.58" shape="399.44,274.35 396.55,254.63 399.12,242.39 407.17,237.63 420.69,240.36"/>
    </edge>
    <edge id=":2_2" function="internal">
        <lane id=":2_2_0" index="0" speed="13.90" length="51.40" shape="399.44,274.35 396.82,256.24 399.28,245.04 406.84,240.73 419.50,243.33"/>
    </edge>
    <edge id=":2_3" function="internal">
        <lane id=":2_3_0" index="0" speed="13.90" length="47.22" shape="399.44,274.35 397.08,257.86 399.44,247.68 406.52,243.83 418.32,246.31"/>
    </edge>
    <edge id=":2_4" function="internal">
        <lane id=":2_4_0" index="0" speed="13.90" length="43.04" shape="399.44,274.35 397.35,259.47 399.60,250.33 406.20,246.93 417.14,249.28"/>
    </edge>
    <edge id=":2_5" function="internal">
        <lane id=":2_5_0" index="0" speed="13.90" length="38.88" shape="399.44,274.35 397.62,261.08 399.77,252.98 405.88,250.03 415.95,252.25"/>
    </edge>
    <edge id=":2_6" function="internal">
        <lane id=":2_6_0" index="0" speed="13.90" length="6.06" shape="408.86,270.09 407.06,269.63 405.93,269.94 405.46,271.01 405.67,272.86"/>
    </edge>
    <edge id=":2_7" function="internal">
        <lane id=":2_7_0" index="0" speed="13.90" length="14.21" shape="410.04,267.12 405.82,266.03 403.17,266.75 402.08,269.28 402.56,273.60"/>
    </edge>
    <edge id=":202_0" function="internal">
        <lane id=":202_0_0" index="0" speed="13.90" length="18.85" shape="1002.18,387.92 999.45,392.57 996.02,394.77 992.41,396.90 989.14,401.33"/>
        <lane id=":202_0_1" index="1" speed="13.90" length="18.85" shape="999.14,386.92 996.45,391.47 993.04,393.60 989.46,395.66 986.23,400.00"/>
        <lane id=":202_0_2" index="2" speed="13.90" length="18.85" shape="996.10,385.92 993.44,390.37 990.06,392.43 986.51,394.42 983.32,398.67"/>
    </edge>
    <edge id=":202_3" function="internal">
        <lane id=":202_3_0" index="0" speed="13.90" length="2.27" shape="990.03,383.91 988.71,384.66 987.98,384.86"/>
    </edge>
    <edge id=":202_14" function="internal">
        <lane id=":202_14_0" index="0" speed="13.90" length="16.79" shape="987.98,384.86 985.18,385.62 979.45,386.77 971.52,388.14"/>
    </edge>
    <edge id=":202_4" function="internal">
        <lane id=":202_4_0" index="0" speed="13.90" length="5.50" shape="970.49,381.82 972.10,381.42 973.36,380.80 974.27,379.96 974.83,378.89"/>
    </edge>
    <edge id=":202_5" function="internal">
        <lane id=":202_5_0" index="0" speed="13.90" length="9.00" shape="971.00,384.98 973.49,384.33 975.46,383.26 976.92,381.79 977.87,379.90"/>
    </edge>
    <edge id=":202_6" function="internal">
        <lane id=":202_6_0" index="0" speed="13.90" length="11.02" shape="971.00,384.98 975.01,384.17 978.00,383.23 979.97,382.13 980.91,380.90"/>
    </edge>
    <edge id=":202_7" function="internal">
        <lane id=":202_7_0" index="0" speed="13.90" length="30.03" shape="971.00,384.98 980.91,384.47 986.75,386.80 988.52,391.98 986.23,400.00"/>
    </edge>
    <edge id=":202_8" function="internal">
        <lane id=":202_8_0" index="0" speed="13.90" length="25.98" shape="971.00,384.98 979.30,384.61 984.12,386.77 985.46,391.46 983.32,398.67"/>
    </edge>
    <edge id=":202_9" function="internal">
        <lane id=":202_9_0" index="0" speed="13.90" length="5.99" shape="974.59,394.66 975.14,392.92 974.89,391.78 973.85,391.24 972.03,391.29"/>
    </edge>
    <edge id=":202_10" function="internal">
        <lane id=":202_10_0" index="0" speed="13.90" length="15.63" shape="974.59,394.66 976.10,390.47 976.53,387.40 976.80,384.27 977.87,379.90"/>
        <lane id=":202_10_1" index="1" speed="13.90" length="15.63" shape="977.50,396.00 979.05,391.70 979.51,388.57 979.81,385.37 980.91,380.90"/>
        <lane id=":202_10_2" index="2" speed="13.90" length="15.63" shape="980.41,397.33 982.01,392.94 982.49,389.74 982.81,386.47 983.95,381.90"/>
        <lane id=":202_10_3" index="3" speed="13.90" length="15.63" shape="980.41,397.33 982.48,393.10 984.01,390.24 985.38,387.32 986.99,382.91"/>
    </edge>
    <edge id=":212_0" function="internal">
        <lane id=":212_0_0" index="0" speed="13.90" length="4.84" shape="846.04,24.10 844.83,23.61 843.72,23.58 842.69,24.02 841.76,24.93"/>
    </edge>
    <edge id=":212_1" function="internal">
        <lane id=":212_1_0" index="0" speed="13.90" length="26.05" shape="839.23,22.97 846.14,14.41 851.45,8.52 855.17,5.29 857.29,4.73"/>
    </edge>
    <edge id=":212_2" function="internal">
        <lane id=":212_2_0" index="0" speed="13.90" length="23.10" shape="839.23,22.97 845.29,15.54 850.06,10.49 853.52,7.81 855.69,7.50"/>
    </edge>
    <edge id=":212_3" function="internal">
        <lane id=":212_3_0" index="0" speed="13.90" length="20.20" shape="839.23,22.97 844.45,16.67 848.66,12.45 851.87,10.32 854.08,10.27"/>
    </edge>
    <edge id=":212_4" function="internal">
        <lane id=":212_4_0" index="0" speed="13.90" length="17.37" shape="839.23,22.97 843.60,17.80 847.27,14.42 850.22,12.83 852.47,13.04"/>
    </edge>
    <edge id=":216_0" function="internal">
        <lane id=":216_0_0" index="0" speed="13.90" length="22.44" shape="402.39,121.93 398.99,122.12 394.92,124.27 390.17,128.39 384.74,134.47"/>
    </edge>
    <edge id=":216_1" function="internal">
        <lane id=":216_1_0" index="0" speed="13.90" length="23.92" shape="402.39,121.93 397.56,121.66 392.59,123.32 387.49,126.92 382.26,132.44"/>
    </edge>
    <edge id=":216_2" function="internal">
        <lane id=":216_2_0" index="0" speed="13.90" length="48.37" shape="402.39,121.93 356.01,108.19"/>
    </edge>
    <edge id=":216_3" function="internal">
        <lane id=":216_3_0" index="0" speed="13.90" length="12.89" shape="403.19,118.83 391.47,114.73 391.08,114.46"/>
    </edge>
    <edge id=":216_4" function="internal">
        <lane id=":216_4_0" index="0" speed="13.90" length="11.67" shape="403.19,118.83 392.86,115.15 392.29,114.73"/>
    </edge>
    <edge id=":216_26" function="internal">
        <lane id=":216_26_0" index="0" speed="13.90" length="21.82" shape="391.08,114.46 384.37,109.72 381.89,103.79 384.03,96.95"/>
    </edge>
    <edge id=":216_27" function="internal">
        <lane id=":216_27_0" index="0" speed="13.90" length="19.65" shape="392.29,114.73 386.67,110.56 384.64,105.04 386.76,98.61"/>
    </edge>
    <edge id=":216_5" function="internal">
        <lane id=":216_5_0" index="0" speed="13.90" length="5.40" shape="403.16,108.60 402.55,110.02 402.62,111.17 403.37,112.04 404.80,112.63"/>
    </edge>
    <edge id=":216_6" function="internal">
        <lane id=":216_6_0" index="0" speed="13.90" length="30.70" shape="403.16,108.60 398.21,116.63 394.62,122.00 390.69,127.14 384.74,134.47"/>
        <lane id=":216_6_1" index="1" speed="13.90" length="30.70" shape="400.43,106.93 395.55,114.85 392.00,120.15 388.13,125.22 382.26,132.44"/>
        <lane id=":216_6_2" index="2" speed="13.90" length="30.70" shape="397.69,105.27 392.88,113.08 389.39,118.30 385.57,123.30 379.78,130.42"/>
        <lane id=":216_6_3" index="3" speed="13.90" length="30.70" shape="394.96,103.60 390.22,111.30 386.77,116.45 383.01,121.38 377.30,128.40"/>
        <lane id=":216_6_4" index="4" speed="13.90" length="30.70" shape="392.23,101.94 387.55,109.53 384.16,114.60 380.45,119.46 374.82,126.38"/>
        <lane id=":216_6_5" index="5" speed="13.90" length="30.70" shape="389.49,100.28 384.89,107.75 381.54,112.75 377.88,117.53 372.35,124.35"/>
    </edge>
    <edge id=":216_12" function="internal">
        <lane id=":216_12_0" index="0" speed="13.90" length="7.52" shape="389.49,100.28 384.46,105.61 384.28,105.68"/>
    </edge>
    <edge id=":216_28" function="internal">
        <lane id=":216_28_0" index="0" speed="13.90" length="29.01" shape="384.28,105.68 377.20,108.70 367.71,109.56 356.01,108.19"/>
    </edge>
    <edge id=":216_13" function="internal">
        <lane id=":216_13_0" index="0" speed="13.90" length="23.10" shape="356.62,105.05 360.16,104.61 364.09,102.01 368.40,97.23 373.09,90.29"/>
    </edge>
    <edge id=":216_14" function="internal">
        <lane id=":216_14_0" index="0" speed="13.90" length="24.69" shape="356.62,105.05 361.59,104.96 366.44,102.75 371.19,98.41 375.83,91.95"/>
    </edge>
    <edge id=":216_15" function="internal">
        <lane id=":216_15_0" index="0" speed="13.90" length="48.57" shape="356.62,105.05 403.99,115.73"/>
    </edge>
    <edge id=":216_16" function="internal">
        <lane id=":216_16_0" index="0" speed="13.90" length="19.27" shape="356.62,105.05 369.28,108.62 374.40,111.97"/>
    </edge>
    <edge id=":216_17" function="internal">
        <lane id=":216_17_0" index="0" speed="13.90" length="17.28" shape="356.62,105.05 367.79,108.23 372.48,111.40"/>
    </edge>
    <edge id=":216_29" function="internal">
        <lane id=":216_29_0" index="0" speed="13.90" length="16.69" shape="374.40,111.97 376.54,113.37 378.38,119.28 374.82,126.38"/>
    </edge>
    <edge id=":216_30" function="internal">
        <lane id=":216_30_0" index="0" speed="13.90" length="14.84" shape="372.48,111.40 374.13,112.51 375.65,117.89 372.35,124.35"/>
    </edge>
    <edge id=":216_18" function="internal">
        <lane id=":216_18_0" index="0" speed="13.90" length="5.76" shape="357.47,112.22 358.36,110.75 358.42,109.59 357.63,108.74 356.01,108.19"/>
    </edge>
    <edge id=":216_19" function="internal">
        <lane id=":216_19_0" index="0" speed="13.90" length="28.07" shape="357.47,112.22 362.51,106.01 365.85,101.65 368.90,97.10 373.09,90.29"/>
        <lane id=":216_19_1" index="1" speed="13.90" length="28.07" shape="359.95,114.24 365.08,107.93 368.46,103.50 371.56,98.88 375.83,91.95"/>
        <lane id=":216_19_2" index="2" speed="13.90" length="28.07" shape="362.43,116.26 367.64,109.85 371.08,105.35 374.23,100.65 378.56,93.62"/>
        <lane id=":216_19_3" index="3" speed="13.90" length="28.07" shape="364.91,118.29 370.20,111.77 373.69,107.20 376.89,102.43 381.29,95.28"/>
        <lane id=":216_19_4" index="4" speed="13.90" length="28.07" shape="367.39,120.31 372.76,113.69 376.31,109.05 379.56,104.20 384.03,96.95"/>
        <lane id=":216_19_5" index="5" speed="13.90" length="28.07" shape="369.87,122.33 375.32,115.61 378.92,110.90 382.22,105.98 386.76,98.61"/>
    </edge>
    <edge id=":216_25" function="internal">
        <lane id=":216_25_0" index="0" speed="13.90" length="8.34" shape="369.87,122.33 375.90,117.14 376.25,117.01"/>
    </edge>
    <edge id=":216_31" function="internal">
        <lane id=":216_31_0" index="0" speed="13.90" length="28.40" shape="376.25,117.01 383.60,114.31 392.96,113.84 403.99,115.73"/>
    </edge>
    <edge id=":229_0" function="internal">
        <lane id=":229_0_0" index="0" speed="13.90" length="2.40" shape="942.88,80.48 942.77,80.35 942.68,80.26 942.58,80.19 942.43,80.09"/>
        <lane id=":229_0_1" index="1" speed="13.90" length="2.40" shape="945.39,78.49 945.05,78.08 944.79,77.82 944.50,77.60 944.04,77.33"/>
        <lane id=":229_0_2" index="2" speed="13.90" length="2.40" shape="947.89,76.50 947.33,75.81 946.90,75.38 946.41,75.02 945.65,74.56"/>
        <lane id=":229_0_3" index="3" speed="13.90" length="2.40" shape="950.40,74.51 949.61,73.55 949.01,72.93 948.32,72.43 947.25,71.79"/>
    </edge>