<?xml version="1.0" encoding="UTF-8"?>

<!-- generated on 06/24/18 20:11:58 by Eclipse SUMO netgenerate Version v0_32_0+1445-5aa8ffc0a4
<configuration xmlns:xsi="http://www.w3.org/2001/XMLSchema-instance" xsi:noNamespaceSchemaLocation="http://sumo.dlr.de/xsd/netgenerateConfiguration.xsd">

    <random_network>
        <rand value="true"/>
        <rand.iterations value="5"/>
        <rand.neighbor-dist1 value="0"/>
        <rand.neighbor-dist2 value="7"/>
        <rand.neighbor-dist3 value="6"/>
        <rand.neighbor-dist4 value="1"/>
        <rand.neighbor-dist5 value="0"/>
        <rand.neighbor-dist6 value="8"/>
        <rand.random-lanenumber value="true"/>
    </random_network>

    <output>
        <output-file value="./random/random.net.xml"/>
    </output>

    <processing>
        <no-turnarounds value="true"/>
    </processing>

    <building_defaults>
        <default.lanenumber value="3"/>
        <default-junction-type value="traffic_light_right_on_red"/>
    </building_defaults>

</configuration>
-->

<net version="0.27" xmlns:xsi="http://www.w3.org/2001/XMLSchema-instance" xsi:noNamespaceSchemaLocation="http://sumo.dlr.de/xsd/net_file.xsd">

    <location netOffset="162.29,227.19" convBoundary="0.00,0.00,373.91,438.66" origBoundary="-162.29,-227.19,211.62,211.46" projParameter="!"/>

    <edge id=":1_0" function="internal">
        <lane id=":1_0_0" index="0" speed="13.90" length="5.38" shape="154.41,234.97 154.17,233.44 153.50,232.51 152.40,232.16 150.88,232.41"/>
    </edge>
    <edge id=":1_1" function="internal">
        <lane id=":1_1_0" index="0" speed="13.90" length="11.60" shape="154.41,234.97 154.90,231.70 155.97,229.50 156.81,227.32 156.62,224.14"/>
        <lane id=":1_1_1" index="1" speed="13.90" length="11.60" shape="157.61,234.92 158.10,231.45 159.15,229.10 159.97,226.78 159.73,223.40"/>
    </edge>
    <edge id=":1_3" function="internal">
        <lane id=":1_3_0" index="0" speed="13.90" length="5.36" shape="160.81,234.87 161.56,230.81 162.36,229.87"/>
    </edge>
    <edge id=":1_14" function="internal">
        <lane id=":1_14_0" index="0" speed="13.90" length="12.46" shape="162.36,229.87 163.94,227.99 167.97,226.39 173.63,226.02"/>
    </edge>
    <edge id=":1_4" function="internal">
        <lane id=":1_4_0" index="0" speed="13.90" length="7.11" shape="173.51,229.22 172.12,229.52 171.14,230.53 170.57,232.27 170.41,234.72"/>
    </edge>
    <edge id=":1_5" function="internal">
        <lane id=":1_5_0" index="0" speed="13.90" length="22.90" shape="173.51,229.22 168.54,229.43 162.11,230.19 155.73,231.26 150.88,232.41"/>
    </edge>
    <edge id=":1_6" function="internal">
        <lane id=":1_6_0" index="0" speed="13.90" length="7.53" shape="173.51,229.22 167.96,228.68 166.07,228.15"/>
    </edge>
    <edge id=":1_15" function="internal">
        <lane id=":1_15_0" index="0" speed="13.90" length="8.32" shape="166.07,228.15 163.82,227.53 161.08,225.77 159.73,223.40"/>
    </edge>
    <edge id=":1_7" function="internal">
        <lane id=":1_7_0" index="0" speed="13.90" length="9.34" shape="165.96,221.90 166.78,223.61 168.34,224.86 170.62,225.67 173.63,226.02"/>
    </edge>
    <edge id=":1_8" function="internal">
        <lane id=":1_8_0" index="0" speed="13.90" length="12.62" shape="165.96,221.90 166.77,225.65 167.11,228.27 167.18,230.91 167.21,234.77"/>
        <lane id=":1_8_1" index="1" speed="13.90" length="12.62" shape="162.84,222.65 163.62,226.20 163.93,228.67 163.99,231.17 164.01,234.82"/>
    </edge>
    <edge id=":1_10" function="internal">
        <lane id=":1_10_0" index="0" speed="13.90" length="4.38" shape="162.84,222.65 162.60,225.37 161.56,226.64"/>
    </edge>
    <edge id=":1_16" function="internal">
        <lane id=":1_16_0" index="0" speed="13.90" length="12.32" shape="161.56,226.64 160.53,227.90 156.62,230.25 150.88,232.41"/>
    </edge>
    <edge id=":1_11" function="internal">
        <lane id=":1_11_0" index="0" speed="13.90" length="9.12" shape="149.93,229.35 153.12,228.17 155.30,226.90 156.47,225.56 156.62,224.14"/>
    </edge>
    <edge id=":1_12" function="internal">
        <lane id=":1_12_0" index="0" speed="13.90" length="23.98" shape="149.93,229.35 154.95,228.18 161.70,227.06 168.49,226.25 173.63,226.02"/>
    </edge>
    <edge id=":1_13" function="internal">
        <lane id=":1_13_0" index="0" speed="13.90" length="11.02" shape="149.93,229.35 156.03,228.07 160.41,228.56 160.70,228.80"/>
    </edge>
    <edge id=":1_17" function="internal">
        <lane id=":1_17_0" index="0" speed="13.90" length="7.22" shape="160.70,228.80 163.07,230.81 164.01,234.82"/>
    </edge>

    <edge id="-11" from="10" to="1" priority="-1">
        <lane id="-11_0" index="0" speed="13.90" length="157.48" shape="-0.47,276.03 149.93,229.35"/>
    </edge>
    <edge id="-3" from="2" to="1" priority="-1">
        <lane id="-3_0" index="0" speed="13.90" length="229.36" shape="112.40,-1.12 165.96,221.90"/>
        <lane id="-3_1" index="1" speed="13.90" length="229.36" shape="109.29,-0.37 162.84,222.65"/>
    </edge>
    <edge id="-7" from="6" to="1" priority="-1">
        <lane id="-7_0" index="0" speed="13.90" length="203.84" shape="157.61,438.78 154.41,234.97"/>
        <lane id="-7_1" index="1" speed="13.90" length="203.84" shape="160.81,438.73 157.61,234.92"/>
        <lane id="-7_2" index="2" speed="13.90" length="203.84" shape="164.01,438.68 160.81,234.87"/>
    </edge>
    <edge id="-9" from="8" to="1" priority="-1">
        <lane id="-9_0" index="0" speed="13.90" length="200.48" shape="373.85,236.82 173.51,229.22"/>
    </edge>
    <edge id="11" from="1" to="10" priority="-1">
        <lane id="11_0" index="0" speed="13.90" length="157.48" shape="150.88,232.41 0.47,279.08"/>
    </edge>
    <edge id="3" from="1" to="2" priority="-1">
        <lane id="3_0" index="0" speed="13.90" length="229.36" shape="156.62,224.14 103.07,1.12"/>
        <lane id="3_1" index="1" speed="13.90" length="229.36" shape="159.73,223.40 106.18,0.37"/>
    </edge>
    <edge id="7" from="1" to="6" priority="-1">
        <lane id="7_0" index="0" speed="13.90" length="203.84" shape="170.41,234.72 173.61,438.53"/>
        <lane id="7_1" index="1" speed="13.90" length="203.84" shape="167.21,234.77 170.41,438.58"/>
        <lane id="7_2" index="2" speed="13.90" length="203.84" shape="164.01,234.82 167.21,438.63"/>
    </edge>
    <edge id="9" from="1" to="8" priority="-1">
        <lane id="9_0" index="0" speed="13.90" length="200.48" shape="173.63,226.02 373.97,233.62"/>
    </edge>

    <tlLogic id="1" type="static" programID="0" offset="0">
        <phase duration="33" state="GGGgsrrGGGgsrr"/>
        <phase duration="3"  state="yyyysrryyyysrr"/>
        <phase duration="6"  state="rrrGsrrrrrGsrr"/>
        <phase duration="3"  state="rrrysrrrrrysrr"/>
        <phase duration="33" state="srrrGGgsrrrGGg"/>
        <phase duration="3"  state="srrryyysrrryyy"/>
        <phase duration="6"  state="srrrrrGsrrrrrG"/>
        <phase duration="3"  state="srrrrrysrrrrry"/>
    </tlLogic>

    <junction id="1" type="traffic_light_right_on_red" x="162.29" y="227.19" incLanes="-7_0 -7_1 -7_2 -9_0 -3_0 -3_1 -11_0" intLanes=":1_0_0 :1_1_0 :1_1_1 :1_14_0 :1_4_0 :1_5_0 :1_15_0 :1_7_0 :1_8_0 :1_8_1 :1_16_0 :1_11_0 :1_12_0 :1_17_0" shape="152.81,234.99 172.01,234.69 173.45,230.82 173.69,224.42 167.51,221.53 155.07,224.52 149.46,227.82 151.36,233.94">
        <request index="0"  response="00000000100000" foes="00010000100000" cont="0"/>
        <request index="1"  response="10000001000000" foes="11110001100000" cont="0"/>
        <request index="2"  response="10000001000000" foes="11110001100000" cont="0"/>
        <request index="3"  response="10001111000000" foes="11001111100000" cont="1"/>
        <request index="4"  response="00001100000000" foes="10001100000000" cont="0"/>
        <request index="5"  response="00011100001111" foes="10011100001111" cont="0"/>
        <request index="6"  response="01111100001110" foes="01111100001110" cont="1"/>
        <request index="7"  response="01000000000000" foes="01000000001000" cont="0"/>
        <request index="8"  response="10000001000000" foes="11000001111000" cont="0"/>
        <request index="9"  response="10000001000000" foes="11000001111000" cont="0"/>
        <request index="10" response="10000001000111" foes="11000001100111" cont="1"/>
        <request index="11" response="00000000000110" foes="00000001000110" cont="0"/>
        <request index="12" response="00011110001110" foes="00011111001110" cont="0"/>
        <request index="13" response="00011100111110" foes="00011100111110" cont="1"/>
    </junction>
    <junction id="10" type="dead_end" x="0.00" y="277.55" incLanes="11_0" intLanes="" shape="0.00,277.55 0.95,280.61 0.00,277.55"/>
    <junction id="2" type="dead_end" x="107.74" y="0.00" incLanes="3_0 3_1" intLanes="" shape="107.74,-0.00 101.51,1.49 107.74,0.00"/>
    <junction id="6" type="dead_end" x="165.61" y="438.66" incLanes="7_0 7_1 7_2" intLanes="" shape="165.61,438.66 175.21,438.50 165.61,438.66"/>
    <junction id="8" type="dead_end" x="373.91" y="235.22" incLanes="9_0" intLanes="" shape="373.91,235.22 374.03,232.02 373.91,235.22"/>

    <junction id=":1_14_0" type="internal" x="162.36" y="229.87" incLanes=":1_3_0 -3_0 -3_1" intLanes=":1_5_0 :1_6_0 :1_7_0 :1_8_0 :1_8_1 :1_12_0 :1_13_0"/>
    <junction id=":1_15_0" type="internal" x="166.07" y="228.15" incLanes=":1_6_0 -11_0" intLanes=":1_1_0 :1_1_1 :1_3_0 :1_8_0 :1_8_1 :1_10_0 :1_11_0 :1_12_0"/>
    <junction id=":1_16_0" type="internal" x="161.56" y="226.64" incLanes=":1_10_0 -7_0 -7_1" intLanes=":1_0_0 :1_1_0 :1_1_1 :1_5_0 :1_6_0 :1_12_0 :1_13_0"/>
    <junction id=":1_17_0" type="internal" x="160.70" y="228.80" incLanes=":1_13_0 -9_0" intLanes=":1_1_0 :1_1_1 :1_3_0 :1_4_0 :1_5_0 :1_8_0 :1_8_1 :1_10_0"/>

    <connection from="-11" to="3" fromLane="0" toLane="0" via=":1_11_0" tl="1" linkIndex="11" dir="r" state="o"/>
    <connection from="-11" to="9" fromLane="0" toLane="0" via=":1_12_0" tl="1" linkIndex="12" dir="s" state="o"/>
    <connection from="-11" to="7" fromLane="0" toLane="2" via=":1_13_0" tl="1" linkIndex="13" dir="l" state="o"/>
    <connection from="-3" to="9" fromLane="0" toLane="0" via=":1_7_0" tl="1" linkIndex="7" dir="r" state="O"/>
    <connection from="-3" to="7" fromLane="0" toLane="1" via=":1_8_0" tl="1" linkIndex="8" dir="s" state="O"/>
    <connection from="-3" to="7" fromLane="1" toLane="2" via=":1_8_1" tl="1" linkIndex="9" dir="s" state="O"/>
    <connection from="-3" to="11" fromLane="1" toLane="0" via=":1_10_0" tl="1" linkIndex="10" dir="l" state="o"/>
    <connection from="-7" to="11" fromLane="0" toLane="0" via=":1_0_0" tl="1" linkIndex="0" dir="r" state="O"/>
    <connection from="-7" to="3" fromLane="0" toLane="0" via=":1_1_0" tl="1" linkIndex="1" dir="s" state="O"/>
    <connection from="-7" to="3" fromLane="1" toLane="1" via=":1_1_1" tl="1" linkIndex="2" dir="s" state="O"/>
    <connection from="-7" to="9" fromLane="2" toLane="0" via=":1_3_0" tl="1" linkIndex="3" dir="l" state="o"/>
    <connection from="-9" to="7" fromLane="0" toLane="0" via=":1_4_0" tl="1" linkIndex="4" dir="r" state="o"/>
    <connection from="-9" to="11" fromLane="0" toLane="0" via=":1_5_0" tl="1" linkIndex="5" dir="s" state="o"/>
    <connection from="-9" to="3" fromLane="0" toLane="1" via=":1_6_0" tl="1" linkIndex="6" dir="l" state="o"/>

    <connection from=":1_0" to="11" fromLane="0" toLane="0" dir="r" state="M"/>
    <connection from=":1_1" to="3" fromLane="0" toLane="0" dir="s" state="M"/>
    <connection from=":1_1" to="3" fromLane="1" toLane="1" dir="s" state="M"/>
    <connection from=":1_3" to="9" fromLane="0" toLane="0" via=":1_14_0" dir="l" state="m"/>
    <connection from=":1_14" to="9" fromLane="0" toLane="0" dir="l" state="M"/>
    <connection from=":1_4" to="7" fromLane="0" toLane="0" dir="r" state="M"/>
    <connection from=":1_5" to="11" fromLane="0" toLane="0" dir="s" state="M"/>
    <connection from=":1_6" to="3" fromLane="0" toLane="1" via=":1_15_0" dir="l" state="m"/>
    <connection from=":1_15" to="3" fromLane="0" toLane="1" dir="l" state="M"/>
    <connection from=":1_7" to="9" fromLane="0" toLane="0" dir="r" state="M"/>
    <connection from=":1_8" to="7" fromLane="0" toLane="1" dir="s" state="M"/>
    <connection from=":1_8" to="7" fromLane="1" toLane="2" dir="s" state="M"/>
    <connection from=":1_10" to="11" fromLane="0" toLane="0" via=":1_16_0" dir="l" state="m"/>
    <connection from=":1_16" to="11" fromLane="0" toLane="0" dir="l" state="M"/>
    <connection from=":1_11" to="3" fromLane="0" toLane="0" dir="r" state="M"/>
    <connection from=":1_12" to="9" fromLane="0" toLane="0" dir="s" state="M"/>
    <connection from=":1_13" to="7" fromLane="0" toLane="2" via=":1_17_0" dir="l" state="m"/>
    <connection from=":1_17" to="7" fromLane="0" toLane="2" dir="l" state="M"/>

</net>
