<?xml version="1.0" encoding="UTF-8"?>

<!-- generated on 06/17/18 22:23:37 by Eclipse SUMO netgenerate Version v0_32_0+1445-5aa8ffc0a4
<configuration xmlns:xsi="http://www.w3.org/2001/XMLSchema-instance" xsi:noNamespaceSchemaLocation="http://sumo.dlr.de/xsd/netgenerateConfiguration.xsd">

    <random_network>
        <rand value="true"/>
        <rand.iterations value="50"/>
        <rand.random-lanenumber value="true"/>
    </random_network>

    <output>
        <output-file value="./random/random.net.xml"/>
    </output>

    <processing>
        <no-turnarounds value="true"/>
    </processing>

    <building_defaults>
        <default.lanenumber value="3"/>
        <default-junction-type value="traffic_light_right_on_red"/>
    </building_defaults>

</configuration>
-->

<net version="0.27" xmlns:xsi="http://www.w3.org/2001/XMLSchema-instance" xsi:noNamespaceSchemaLocation="http://sumo.dlr.de/xsd/net_file.xsd">

    <location netOffset="688.86,738.74" convBoundary="0.00,0.00,1586.53,1492.29" origBoundary="-688.86,-738.74,897.66,753.55" projParameter="!"/>

    <edge id=":1_0" function="internal">
        <lane id=":1_0_0" index="0" speed="13.90" length="6.93" shape="684.24,750.27 683.95,748.14 683.16,746.80 681.86,746.26 680.06,746.50"/>
    </edge>
    <edge id=":1_1" function="internal">
        <lane id=":1_1_0" index="0" speed="13.90" length="19.48" shape="684.24,750.27 684.17,744.60 683.97,740.70 683.39,736.86 682.15,731.33"/>
        <lane id=":1_1_1" index="1" speed="13.90" length="19.48" shape="687.44,750.22 687.36,744.34 687.16,740.30 686.55,736.31 685.26,730.58"/>
    </edge>
    <edge id=":1_3" function="internal">
        <lane id=":1_3_0" index="0" speed="13.90" length="12.77" shape="687.44,750.22 688.01,744.50 689.90,740.46 691.97,738.96"/>
    </edge>
    <edge id=":1_16" function="internal">
        <lane id=":1_16_0" index="0" speed="13.90" length="6.04" shape="691.97,738.96 693.13,738.12 697.69,737.47"/>
    </edge>
    <edge id=":1_4" function="internal">
        <lane id=":1_4_0" index="0" speed="13.90" length="5.35" shape="697.33,747.07 695.79,747.21 694.69,747.76 694.04,748.74 693.84,750.12"/>
    </edge>
    <edge id=":1_5" function="internal">
        <lane id=":1_5_0" index="0" speed="13.90" length="18.03" shape="697.33,747.07 692.15,746.48 688.55,745.70 685.03,745.46 680.06,746.50"/>
        <lane id=":1_5_1" index="1" speed="13.90" length="18.03" shape="697.45,743.87 691.95,743.27 688.13,742.51 684.39,742.31 679.12,743.44"/>
    </edge>
    <edge id=":1_7" function="internal">
        <lane id=":1_7_0" index="0" speed="13.90" length="17.26" shape="697.57,740.67 693.06,739.90 689.50,737.96 686.90,734.85 685.26,730.58"/>
    </edge>
    <edge id=":1_8" function="internal">
        <lane id=":1_8_0" index="0" speed="13.90" length="4.69" shape="694.59,728.34 695.04,729.50 695.75,730.34 696.71,730.87 697.94,731.08"/>
    </edge>
    <edge id=":1_9" function="internal">
        <lane id=":1_9_0" index="0" speed="13.90" length="21.62" shape="694.59,728.34 695.53,734.81 695.11,739.45 694.25,743.99 693.84,750.12"/>
        <lane id=":1_9_1" index="1" speed="13.90" length="21.62" shape="691.48,729.09 692.37,735.30 691.93,739.73 691.05,744.10 690.64,750.17"/>
    </edge>
    <edge id=":1_11" function="internal">
        <lane id=":1_11_0" index="0" speed="13.90" length="4.61" shape="688.37,729.83 688.69,734.43"/>
    </edge>
    <edge id=":1_17" function="internal">
        <lane id=":1_17_0" index="0" speed="13.90" length="13.86" shape="688.69,734.43 687.26,738.23 684.06,741.23 679.12,743.44"/>
    </edge>
    <edge id=":1_12" function="internal">
        <lane id=":1_12_0" index="0" speed="13.90" length="6.19" shape="677.22,737.33 678.41,736.67 679.10,735.57 679.31,734.04 679.03,732.07"/>
    </edge>
    <edge id=":1_13" function="internal">
        <lane id=":1_13_0" index="0" speed="13.90" length="20.46" shape="677.22,737.33 683.00,735.55 687.20,734.54 691.55,734.17 697.82,734.28"/>
        <lane id=":1_13_1" index="1" speed="13.90" length="20.46" shape="678.17,740.38 683.81,738.64 687.77,737.69 691.81,737.36 697.69,737.47"/>
    </edge>
    <edge id=":1_15" function="internal">
        <lane id=":1_15_0" index="0" speed="13.90" length="19.57" shape="678.17,740.38 683.55,739.57 687.42,740.93 689.78,744.46 690.64,750.17"/>
    </edge>
    <edge id=":115_0" function="internal">
        <lane id=":115_0_0" index="0" speed="13.90" length="7.55" shape="857.81,432.31 856.75,430.99 855.47,430.83 853.97,431.83 852.25,433.99"/>
    </edge>
    <edge id=":115_1" function="internal">
        <lane id=":115_1_0" index="0" speed="13.90" length="12.07" shape="857.81,432.31 856.14,429.66 854.06,427.57 851.57,426.03 848.66,425.06"/>
    </edge>
    <edge id=":115_2" function="internal">
        <lane id=":115_2_0" index="0" speed="13.90" length="14.93" shape="860.67,430.88 858.61,427.61 856.04,425.03 852.95,423.14 849.36,421.94"/>
    </edge>
    <edge id=":115_3" function="internal">
        <lane id=":115_3_0" index="0" speed="13.90" length="22.16" shape="851.43,412.57 855.43,414.21 859.26,417.34 862.91,421.94 866.40,428.03"/>
    </edge>
    <edge id=":115_4" function="internal">
        <lane id=":115_4_0" index="0" speed="13.90" length="19.32" shape="850.74,415.69 854.04,417.11 857.28,419.87 860.44,423.99 863.54,429.46"/>
    </edge>
    <edge id=":115_5" function="internal">
        <lane id=":115_5_0" index="0" speed="13.90" length="19.16" shape="850.05,418.82 854.21,420.66 855.97,423.80 855.31,428.24 852.25,433.99"/>
    </edge>
    <edge id=":115_6" function="internal">
        <lane id=":115_6_0" index="0" speed="13.90" length="5.52" shape="849.59,432.21 850.28,430.76 850.25,429.61 849.48,428.75 847.97,428.19"/>
    </edge>
    <edge id=":115_7" function="internal">
        <lane id=":115_7_0" index="0" speed="13.90" length="18.90" shape="849.59,432.21 853.75,427.11 857.46,424.95 860.72,425.73 863.54,429.46"/>
    </edge>
    <edge id=":118_0" function="internal">
        <lane id=":118_0_0" index="0" speed="13.90" length="29.16" shape="469.55,421.00 460.53,423.00 453.44,422.63 447.07,421.23 440.22,420.14"/>
        <lane id=":118_0_1" index="1" speed="13.90" length="29.16" shape="468.49,417.98 459.92,419.86 453.24,419.45 447.17,418.04 440.44,416.94"/>
    </edge>
    <edge id=":118_2" function="internal">
        <lane id=":118_2_0" index="0" speed="13.90" length="25.92" shape="467.44,414.95 461.16,416.07 455.47,414.84 450.36,411.25 445.82,405.31"/>
    </edge>
    <edge id=":118_3" function="internal">
        <lane id=":118_3_0" index="0" speed="13.90" length="23.86" shape="467.44,414.95 462.49,415.57 457.70,413.89 453.06,409.92 448.57,403.67"/>
    </edge>
    <edge id=":118_4" function="internal">
        <lane id=":118_4_0" index="0" speed="13.90" length="10.81" shape="456.82,398.76 459.09,402.22 461.08,404.57 462.81,405.79 464.27,405.89"/>
    </edge>
    <edge id=":118_5" function="internal">
        <lane id=":118_5_0" index="0" speed="13.90" length="15.10" shape="454.07,400.39 457.08,404.79 459.96,407.68 462.71,409.05 465.33,408.91"/>
    </edge>
    <edge id=":118_6" function="internal">
        <lane id=":118_6_0" index="0" speed="13.90" length="7.15" shape="451.32,402.03 454.09,408.62"/>
    </edge>
    <edge id=":118_10" function="internal">
        <lane id=":118_10_0" index="0" speed="13.90" length="19.12" shape="454.09,408.62 454.28,409.07 453.46,413.91 448.84,416.53 440.44,416.94"/>
    </edge>
    <edge id=":118_7" function="internal">
        <lane id=":118_7_0" index="0" speed="13.90" length="6.03" shape="440.87,410.56 442.71,410.45 443.69,409.81 443.81,408.64 443.08,406.95"/>
    </edge>
    <edge id=":118_8" function="internal">
        <lane id=":118_8_0" index="0" speed="13.90" length="25.45" shape="440.87,410.56 447.27,411.15 452.50,411.50 458.03,410.97 465.33,408.91"/>
        <lane id=":118_8_1" index="1" speed="13.90" length="25.45" shape="440.65,413.75 447.17,414.35 452.69,414.69 458.63,414.11 466.38,411.93"/>
    </edge>
    <edge id=":12_0" function="internal">
        <lane id=":12_0_0" index="0" speed="13.90" length="25.71" shape="765.98,579.13 760.92,571.96 756.85,566.05 753.34,561.71 749.95,559.27"/>
    </edge>
    <edge id=":12_1" function="internal">
        <lane id=":12_1_0" index="0" speed="13.90" length="27.10" shape="765.98,579.13 761.39,571.87 758.97,565.91 757.41,560.25 755.39,553.92"/>
        <lane id=":12_1_1" index="1" speed="13.90" length="27.10" shape="768.55,577.22 764.13,570.23 761.85,564.51 760.37,559.03 758.38,552.77"/>
    </edge>
    <edge id=":12_3" function="internal">
        <lane id=":12_3_0" index="0" speed="13.90" length="9.31" shape="771.12,575.31 767.68,569.29 767.16,566.97"/>
    </edge>
    <edge id=":12_4" function="internal">
        <lane id=":12_4_0" index="0" speed="13.90" length="7.84" shape="771.12,575.31 767.93,569.31 768.00,568.27"/>
    </edge>
    <edge id=":12_22" function="internal">
        <lane id=":12_22_0" index="0" speed="13.90" length="16.31" shape="767.16,566.97 766.34,563.31 767.11,557.37 769.99,551.47"/>
    </edge>
    <edge id=":12_23" function="internal">
        <lane id=":12_23_0" index="0" speed="13.90" length="16.41" shape="768.00,568.27 768.27,564.64 772.14,561.30 779.53,559.29"/>
    </edge>
    <edge id=":12_5" function="internal">
        <lane id=":12_5_0" index="0" speed="13.90" length="5.76" shape="780.46,565.63 778.81,566.10 777.99,566.92 777.99,568.08 778.82,569.59"/>
    </edge>
    <edge id=":12_6" function="internal">
        <lane id=":12_6_0" index="0" speed="13.90" length="31.42" shape="780.46,565.63 772.17,565.51 763.24,563.69 755.28,561.25 749.95,559.27"/>
    </edge>
    <edge id=":12_7" function="internal">
        <lane id=":12_7_0" index="0" speed="13.90" length="25.81" shape="780.00,562.46 772.30,562.79 766.12,561.28 761.49,557.94 758.38,552.77"/>
    </edge>
    <edge id=":12_8" function="internal">
        <lane id=":12_8_0" index="0" speed="13.90" length="22.83" shape="780.00,562.46 772.16,562.83 767.88,561.12 767.15,557.34 769.99,551.47"/>
    </edge>
    <edge id=":12_9" function="internal">
        <lane id=":12_9_0" index="0" speed="13.90" length="9.53" shape="772.65,553.24 771.99,555.02 772.84,556.09 775.20,556.46 779.07,556.13"/>
    </edge>
    <edge id=":12_10" function="internal">
        <lane id=":12_10_0" index="0" speed="13.90" length="19.81" shape="772.65,553.24 771.11,557.03 771.19,561.33 772.91,566.16 776.25,571.49"/>
    </edge>
    <edge id=":12_11" function="internal">
        <lane id=":12_11_0" index="0" speed="13.90" length="25.70" shape="772.65,553.24 768.25,558.08 763.00,560.70 756.90,561.10 749.95,559.27"/>
    </edge>
    <edge id=":12_12" function="internal">
        <lane id=":12_12_0" index="0" speed="13.90" length="12.60" shape="772.65,553.24 768.40,558.24 764.61,559.82 762.91,558.89"/>
    </edge>
    <edge id=":12_24" function="internal">
        <lane id=":12_24_0" index="0" speed="13.90" length="7.84" shape="762.91,558.89 761.27,558.00 758.38,552.77"/>
    </edge>
    <edge id=":12_13" function="internal">
        <lane id=":12_13_0" index="0" speed="13.90" length="8.19" shape="764.35,550.47 765.57,552.78 766.91,553.71 768.38,553.28 769.99,551.47"/>
    </edge>
    <edge id=":12_14" function="internal">
        <lane id=":12_14_0" index="0" speed="13.90" length="17.10" shape="764.35,550.47 766.34,553.60 769.45,555.59 773.70,556.43 779.07,556.13"/>
    </edge>
    <edge id=":12_15" function="internal">
        <lane id=":12_15_0" index="0" speed="13.90" length="24.71" shape="764.35,550.47 766.71,556.33 768.95,560.85 771.86,565.43 776.25,571.49"/>
        <lane id=":12_15_1" index="1" speed="13.90" length="24.71" shape="761.37,551.62 763.76,557.55 766.07,562.25 769.12,567.07 773.68,573.40"/>
    </edge>
    <edge id=":12_17" function="internal">
        <lane id=":12_17_0" index="0" speed="13.90" length="7.73" shape="761.37,551.62 762.73,557.50 762.03,559.05"/>
    </edge>
    <edge id=":12_25" function="internal">
        <lane id=":12_25_0" index="0" speed="13.90" length="13.51" shape="762.03,559.05 761.28,560.73 757.02,561.32 749.95,559.27"/>
    </edge>
    <edge id=":12_18" function="internal">
        <lane id=":12_18_0" index="0" speed="13.90" length="7.43" shape="751.13,556.30 753.69,557.06 755.25,556.92 755.82,555.87 755.39,553.92"/>
    </edge>
    <edge id=":12_19" function="internal">
        <lane id=":12_19_0" index="0" speed="13.90" length="21.30" shape="751.13,556.30 756.94,557.84 762.02,557.55 766.37,555.42 769.99,551.47"/>
    </edge>
    <edge id=":12_20" function="internal">
        <lane id=":12_20_0" index="0" speed="13.90" length="28.76" shape="751.13,556.30 756.14,557.75 763.36,559.03 771.58,559.70 779.53,559.29"/>
    </edge>
    <edge id=":12_21" function="internal">
        <lane id=":12_21_0" index="0" speed="13.90" length="7.30" shape="751.13,556.30 755.43,558.15 757.71,559.44"/>
    </edge>
    <edge id=":12_26" function="internal">
        <lane id=":12_26_0" index="0" speed="13.90" length="21.38" shape="757.71,559.44 760.98,561.28 767.25,566.20 773.68,573.40"/>
    </edge>
    <edge id=":122_0" function="internal">
        <lane id=":122_0_0" index="0" speed="13.90" length="4.79" shape="1141.20,530.17 1139.92,530.16 1138.87,530.53 1138.06,531.29 1137.49,532.44"/>
    </edge>
    <edge id=":122_1" function="internal">
        <lane id=":122_1_0" index="0" speed="13.90" length="14.91" shape="1141.20,530.17 1136.04,529.12 1132.20,527.70 1129.70,525.90 1128.53,523.73"/>
    </edge>
    <edge id=":122_2" function="internal">
        <lane id=":122_2_0" index="0" speed="13.90" length="11.12" shape="1131.65,523.06 1132.49,524.26 1134.43,525.32 1137.49,526.23 1141.67,527.00"/>
    </edge>
    <edge id=":122_3" function="internal">
        <lane id=":122_3_0" index="0" speed="13.90" length="8.34" shape="1131.65,523.06 1132.68,525.59 1133.93,527.29 1134.74,528.96 1134.46,531.42"/>
        <lane id=":122_3_1" index="1" speed="13.90" length="8.34" shape="1131.65,523.06 1132.11,525.23 1132.27,526.77 1132.06,528.29 1131.42,530.40"/>
    </edge>
    <edge id=":122_5" function="internal">
        <lane id=":122_5_0" index="0" speed="13.90" length="7.17" shape="1122.33,527.33 1128.53,523.73"/>
    </edge>
    <edge id=":122_6" function="internal">
        <lane id=":122_6_0" index="0" speed="13.90" length="3.05" shape="1128.39,529.38 1129.74,527.68 1130.57,527.38"/>
    </edge>
    <edge id=":122_7" function="internal">
        <lane id=":122_7_0" index="0" speed="13.90" length="11.24" shape="1130.57,527.38 1132.41,526.72 1136.38,526.49 1141.67,527.00"/>
    </edge>
    <edge id=":124_0" function="internal">
        <lane id=":124_0_0" index="0" speed="13.90" length="7.45" shape="1208.19,820.50 1206.92,819.45 1205.36,819.09 1203.53,819.42 1201.43,820.44"/>
    </edge>
    <edge id=":124_1" function="internal">
        <lane id=":124_1_0" index="0" speed="13.90" length="17.08" shape="1208.19,820.50 1197.02,807.91"/>
        <lane id=":124_1_1" index="1" speed="13.90" length="17.08" shape="1210.68,818.49 1199.34,805.71"/>
        <lane id=":124_1_2" index="2" speed="13.90" length="17.08" shape="1213.16,816.47 1201.67,803.51"/>
    </edge>
    <edge id=":124_4" function="internal">
        <lane id=":124_4_0" index="0" speed="13.90" length="4.71" shape="1213.16,816.47 1211.38,812.90 1211.50,812.19"/>
    </edge>
    <edge id=":124_16" function="internal">
        <lane id=":124_16_0" index="0" speed="13.90" length="13.27" shape="1211.50,812.19 1211.97,809.50 1214.95,806.29 1220.31,803.26"/>
    </edge>
    <edge id=":124_5" function="internal">
        <lane id=":124_5_0" index="0" speed="13.90" length="5.34" shape="1221.62,806.18 1220.34,806.99 1219.74,807.97 1219.83,809.11 1220.61,810.42"/>
    </edge>
    <edge id=":124_6" function="internal">
        <lane id=":124_6_0" index="0" speed="13.90" length="24.73" shape="1221.62,806.18 1217.49,808.11 1212.19,810.76 1206.14,814.00 1199.76,817.71"/>
    </edge>
    <edge id=":124_7" function="internal">
        <lane id=":124_7_0" index="0" speed="13.90" length="11.76" shape="1221.62,806.18 1215.79,808.07 1210.51,808.26 1210.18,808.15"/>
    </edge>
    <edge id=":124_17" function="internal">
        <lane id=":124_17_0" index="0" speed="13.90" length="9.85" shape="1210.18,808.15 1205.81,806.74 1201.67,803.51"/>
    </edge>
    <edge id=":124_8" function="internal">
        <lane id=":124_8_0" index="0" speed="13.90" length="13.93" shape="1208.65,796.92 1212.26,800.36 1215.40,802.57 1218.09,803.53 1220.31,803.26"/>
    </edge>
    <edge id=":124_9" function="internal">
        <lane id=":124_9_0" index="0" speed="13.90" length="17.80" shape="1208.65,796.92 1220.61,810.42"/>
        <lane id=":124_9_1" index="1" speed="13.90" length="17.80" shape="1206.32,799.11 1218.13,812.44"/>
        <lane id=":124_9_2" index="2" speed="13.90" length="17.80" shape="1203.99,801.31 1215.64,814.46"/>
    </edge>
    <edge id=":124_12" function="internal">
        <lane id=":124_12_0" index="0" speed="13.90" length="6.57" shape="1203.99,801.31 1206.84,805.63 1206.92,807.02"/>
    </edge>
    <edge id=":124_18" function="internal">
        <lane id=":124_18_0" index="0" speed="13.90" length="13.75" shape="1206.92,807.02 1207.08,809.80 1204.72,813.83 1199.76,817.71"/>
    </edge>
    <edge id=":124_13" function="internal">
        <lane id=":124_13_0" index="0" speed="13.90" length="5.27" shape="1196.43,812.24 1197.59,811.29 1198.07,810.25 1197.88,809.13 1197.02,807.91"/>
    </edge>
    <edge id=":124_14" function="internal">
        <lane id=":124_14_0" index="0" speed="13.90" length="25.57" shape="1196.43,812.24 1203.13,808.93 1209.87,806.57 1215.86,804.79 1220.31,803.26"/>
    </edge>
    <edge id=":124_15" function="internal">
        <lane id=":124_15_0" index="0" speed="13.90" length="10.33" shape="1198.10,814.98 1203.71,812.20 1207.69,811.36"/>
    </edge>
    <edge id=":124_19" function="internal">
        <lane id=":124_19_0" index="0" speed="13.90" length="8.92" shape="1207.69,811.36 1208.50,811.18 1212.48,811.94 1215.64,814.46"/>
    </edge>
    <edge id=":127_0" function="internal">
        <lane id=":127_0_0" index="0" speed="13.90" length="16.54" shape="1049.14,1043.43 1044.92,1044.79 1041.90,1045.70 1039.30,1047.18 1036.31,1050.26"/>
        <lane id=":127_0_1" index="1" speed="13.90" length="16.54" shape="1048.00,1040.44 1043.32,1041.99 1040.00,1043.07 1037.14,1044.78 1033.83,1048.23"/>
        <lane id=":127_0_2" index="2" speed="13.90" length="16.54" shape="1046.86,1037.45 1041.72,1039.18 1038.10,1040.43 1034.98,1042.37 1031.35,1046.21"/>
    </edge>
    <edge id=":127_3" function="internal">
        <lane id=":127_3_0" index="0" speed="13.90" length="9.80" shape="1046.86,1037.45 1039.08,1039.36 1037.31,1039.09"/>
    </edge>
    <edge id=":127_4" function="internal">
        <lane id=":127_4_0" index="0" speed="13.90" length="8.20" shape="1046.86,1037.45 1040.42,1038.90 1038.86,1038.53"/>
    </edge>
    <edge id=":127_12" function="internal">
        <lane id=":127_12_0" index="0" speed="13.90" length="16.55" shape="1037.31,1039.09 1033.17,1038.46 1029.15,1034.74 1027.00,1028.20"/>
    </edge>
    <edge id=":127_13" function="internal">
        <lane id=":127_13_0" index="0" speed="13.90" length="15.11" shape="1038.86,1038.53 1035.50,1037.76 1032.08,1034.03 1030.17,1027.72"/>
    </edge>
    <edge id=":127_5" function="internal">
        <lane id=":127_5_0" index="0" speed="13.90" length="5.28" shape="1039.66,1026.27 1040.09,1027.70 1040.86,1028.55 1041.98,1028.81 1043.44,1028.48"/>
    </edge>
    <edge id=":127_6" function="internal">
        <lane id=":127_6_0" index="0" speed="13.90" length="22.18" shape="1036.49,1026.76 1037.20,1033.86 1037.00,1039.80 1035.87,1044.60 1033.83,1048.23"/>
    </edge>
    <edge id=":127_7" function="internal">
        <lane id=":127_7_0" index="0" speed="13.90" length="19.52" shape="1033.33,1027.24 1034.00,1033.66 1033.90,1038.96 1033.01,1043.14 1031.35,1046.21"/>
    </edge>
    <edge id=":127_8" function="internal">
        <lane id=":127_8_0" index="0" speed="13.90" length="11.59" shape="1023.92,1040.13 1024.44,1038.77 1024.60,1036.41 1024.40,1033.05 1023.84,1028.68"/>
    </edge>
    <edge id=":127_9" function="internal">
        <lane id=":127_9_0" index="0" speed="13.90" length="21.55" shape="1023.92,1040.13 1028.51,1035.17 1032.39,1032.52 1036.92,1030.77 1043.44,1028.48"/>
        <lane id=":127_9_1" index="1" speed="13.90" length="21.55" shape="1026.40,1042.15 1030.67,1037.57 1034.30,1035.16 1038.52,1033.57 1044.58,1031.47"/>
        <lane id=":127_9_2" index="2" speed="13.90" length="21.55" shape="1028.88,1044.18 1032.83,1039.97 1036.20,1037.79 1040.12,1036.38 1045.72,1034.46"/>
    </edge>
    <edge id=":137_0" function="internal">
        <lane id=":137_0_0" index="0" speed="13.90" length="19.99" shape="848.81,1049.80 844.16,1052.22 839.50,1053.00 834.84,1052.15 830.17,1049.67"/>
    </edge>
    <edge id=":137_1" function="internal">
        <lane id=":137_1_0" index="0" speed="13.90" length="19.85" shape="846.99,1047.18 841.75,1049.88 838.27,1049.49 836.55,1046.01 836.59,1039.44"/>
    </edge>
    <edge id=":137_2" function="internal">
        <lane id=":137_2_0" index="0" speed="13.90" length="6.39" shape="839.77,1039.79 839.78,1041.80 840.38,1042.83 841.56,1042.87 843.33,1041.92"/>
    </edge>
    <edge id=":137_3" function="internal">
        <lane id=":137_3_0" index="0" speed="13.90" length="17.65" shape="839.77,1039.79 838.52,1046.20 836.50,1049.97 833.72,1051.13 830.17,1049.67"/>
    </edge>
    <edge id=":137_4" function="internal">
        <lane id=":137_4_0" index="0" speed="13.90" length="10.51" shape="832.02,1047.05 833.59,1047.49 834.88,1046.36 835.88,1043.68 836.59,1039.44"/>
    </edge>
    <edge id=":137_5" function="internal">
        <lane id=":137_5_0" index="0" speed="13.90" length="14.21" shape="832.02,1047.05 834.61,1048.15 837.67,1048.10 841.18,1046.90 845.16,1044.55"/>
    </edge>
    <edge id=":14_0" function="internal">
        <lane id=":14_0_0" index="0" speed="13.90" length="9.69" shape="576.30,392.51 574.65,389.24 573.07,387.05 571.56,385.92 570.12,385.88"/>
    </edge>
    <edge id=":14_1" function="internal">
        <lane id=":14_1_0" index="0" speed="13.90" length="14.42" shape="579.23,391.21 576.88,386.83 574.40,383.97 571.80,382.65 569.07,382.86"/>
    </edge>
    <edge id=":14_2" function="internal">
        <lane id=":14_2_0" index="0" speed="13.90" length="28.18" shape="579.23,391.21 576.43,382.39 577.06,376.30 581.14,372.97 588.65,372.38"/>
    </edge>
    <edge id=":14_3" function="internal">
        <lane id=":14_3_0" index="0" speed="13.90" length="24.40" shape="579.23,391.21 576.97,383.84 577.74,378.77 581.54,376.01 588.38,375.57"/>
    </edge>
    <edge id=":14_4" function="internal">
        <lane id=":14_4_0" index="0" speed="13.90" length="5.78" shape="587.57,385.14 585.84,385.22 584.85,385.83 584.60,386.96 585.08,388.62"/>
    </edge>
    <edge id=":14_5" function="internal">
        <lane id=":14_5_0" index="0" speed="13.90" length="19.06" shape="587.57,385.14 582.33,384.53 578.67,384.15 575.10,384.44 570.12,385.88"/>
        <lane id=":14_5_1" index="1" speed="13.90" length="19.06" shape="587.84,381.95 582.20,381.32 578.27,380.94 574.43,381.29 569.07,382.86"/>
        <lane id=":14_5_2" index="2" speed="13.90" length="19.06" shape="588.11,378.76 582.08,378.10 577.86,377.73 573.75,378.15 568.01,379.83"/>
    </edge>
    <edge id=":14_8" function="internal">
        <lane id=":14_8_0" index="0" speed="13.90" length="23.12" shape="564.85,370.77 571.72,368.70 576.65,368.11 581.69,368.45 588.92,369.19"/>
        <lane id=":14_8_1" index="1" speed="13.90" length="23.12" shape="565.90,373.79 572.40,371.85 577.05,371.32 581.82,371.67 588.65,372.38"/>
        <lane id=":14_8_2" index="2" speed="13.90" length="23.12" shape="566.96,376.81 573.07,375.00 577.46,374.52 581.95,374.88 588.38,375.57"/>
    </edge>
    <edge id=":14_11" function="internal">
        <lane id=":14_11_0" index="0" speed="13.90" length="5.00" shape="566.96,376.81 570.96,376.57 571.83,377.04"/>
    </edge>
    <edge id=":14_12" function="internal">
        <lane id=":14_12_0" index="0" speed="13.90" length="16.91" shape="571.83,377.04 574.82,378.67 578.56,383.12 582.16,389.92"/>
    </edge>
    <edge id=":18_0" function="internal">
        <lane id=":18_0_0" index="0" speed="13.90" length="10.31" shape="1080.55,684.66 1077.78,681.96 1075.46,680.17 1073.58,679.29 1072.14,679.33"/>
    </edge>
    <edge id=":18_1" function="internal">
        <lane id=":18_1_0" index="0" speed="13.90" length="20.98" shape="1080.55,684.66 1076.58,679.88 1074.21,676.23 1071.71,672.80 1067.37,668.71"/>
        <lane id=":18_1_1" index="1" speed="13.90" length="20.98" shape="1082.87,682.46 1078.80,677.58 1076.33,673.83 1073.75,670.34 1069.39,666.23"/>
    </edge>
    <edge id=":18_3" function="internal">
        <lane id=":18_3_0" index="0" speed="13.90" length="19.14" shape="1085.20,680.27 1082.98,676.89 1081.99,672.73 1082.21,667.80 1083.65,662.09"/>
    </edge>
    <edge id=":18_4" function="internal">
        <lane id=":18_4_0" index="0" speed="13.90" length="8.81" shape="1092.75,665.16 1091.87,668.21 1091.47,670.65 1091.58,672.47 1092.18,673.67"/>
    </edge>
    <edge id=":18_5" function="internal">
        <lane id=":18_5_0" index="0" speed="13.90" length="10.62" shape="1089.72,664.14 1087.43,668.60 1083.74,672.62 1083.63,672.71"/>
    </edge>
    <edge id=":18_6" function="internal">
        <lane id=":18_6_0" index="0" speed="13.90" length="6.08" shape="1086.69,663.11 1083.90,668.36 1083.78,668.43"/>
    </edge>
    <edge id=":18_14" function="internal">
        <lane id=":18_14_0" index="0" speed="13.90" length="13.30" shape="1083.63,672.71 1078.65,676.20 1072.14,679.33"/>
    </edge>
    <edge id=":18_15" function="internal">
        <lane id=":18_15_0" index="0" speed="13.90" length="16.11" shape="1083.78,668.43 1080.09,670.62 1075.26,669.91 1069.39,666.23"/>
    </edge>
    <edge id=":18_7" function="internal">
        <lane id=":18_7_0" index="0" speed="13.90" length="5.50" shape="1073.42,661.26 1074.79,662.08 1075.94,662.15 1076.87,661.47 1077.59,660.05"/>
    </edge>
    <edge id=":18_8" function="internal">
        <lane id=":18_8_0" index="0" speed="13.90" length="21.81" shape="1073.42,661.26 1078.20,665.07 1081.72,667.93 1085.19,671.10 1089.85,675.87"/>
        <lane id=":18_8_1" index="1" speed="13.90" length="21.81" shape="1071.41,663.74 1076.16,667.53 1079.60,670.33 1082.97,673.41 1087.52,678.07"/>
    </edge>
    <edge id=":18_10" function="internal">
        <lane id=":18_10_0" index="0" speed="13.90" length="20.81" shape="1071.41,663.74 1076.36,668.69 1078.13,672.94 1076.73,676.49 1072.14,679.33"/>
    </edge>
    <edge id=":18_11" function="internal">
        <lane id=":18_11_0" index="0" speed="13.90" length="10.09" shape="1070.95,676.36 1072.19,675.29 1072.01,673.66 1070.40,671.47 1067.37,668.71"/>
    </edge>
    <edge id=":18_12" function="internal">
        <lane id=":18_12_0" index="0" speed="13.90" length="18.51" shape="1070.95,676.36 1073.51,674.61 1075.98,671.48 1078.35,666.97 1080.62,661.07"/>
    </edge>
    <edge id=":18_13" function="internal">
        <lane id=":18_13_0" index="0" speed="13.90" length="11.79" shape="1070.95,676.36 1076.05,674.83 1080.51,674.60 1082.43,675.15"/>
    </edge>
    <edge id=":18_16" function="internal">
        <lane id=":18_16_0" index="0" speed="13.90" length="5.96" shape="1082.43,675.15 1084.33,675.68 1087.52,678.07"/>
    </edge>
    <edge id=":2_0" function="internal">
        <lane id=":2_0_0" index="0" speed="13.90" length="11.93" shape="629.38,525.27 629.25,521.89 630.11,519.47 630.78,517.10 630.11,513.91"/>
        <lane id=":2_0_1" index="1" speed="13.90" length="11.93" shape="632.49,524.52 632.32,520.98 633.14,518.44 633.77,515.96 633.03,512.62"/>
    </edge>
    <edge id=":2_2" function="internal">
        <lane id=":2_2_0" index="0" speed="13.90" length="7.64" shape="635.60,523.77 635.12,517.70 635.95,516.39"/>
    </edge>
    <edge id=":2_8" function="internal">
        <lane id=":2_8_0" index="0" speed="13.90" length="14.81" shape="635.95,516.39 637.24,514.35 641.97,513.71 649.31,515.79"/>
    </edge>
    <edge id=":2_3" function="internal">
        <lane id=":2_3_0" index="0" speed="13.90" length="6.06" shape="648.12,518.77 646.33,518.30 645.20,518.61 644.73,519.68 644.93,521.53"/>
    </edge>
    <edge id=":2_4" function="internal">
        <lane id=":2_4_0" index="0" speed="13.90" length="17.22" shape="648.12,518.77 644.27,518.07 640.07,517.79 636.13,516.46 633.03,512.62"/>
    </edge>
    <edge id=":2_5" function="internal">
        <lane id=":2_5_0" index="0" speed="13.90" length="12.50" shape="638.88,510.02 640.88,512.96 643.26,514.26 646.06,514.88 649.31,515.79"/>
    </edge>
    <edge id=":2_6" function="internal">
        <lane id=":2_6_0" index="0" speed="13.90" length="12.36" shape="638.88,510.02 640.21,513.51 640.76,516.01 641.10,518.59 641.82,522.28"/>
        <lane id=":2_6_1" index="1" speed="13.90" length="12.36" shape="635.96,511.32 637.22,514.65 637.72,517.04 638.03,519.50 638.71,523.02"/>
    </edge>
    <edge id=":209_0" function="internal">
        <lane id=":209_0_0" index="0" speed="13.90" length="12.43" shape="1152.40,1003.71 1151.41,1004.83 1150.38,1007.13 1149.31,1010.60 1148.19,1015.24"/>
    </edge>
    <edge id=":209_1" function="internal">
        <lane id=":209_1_0" index="0" speed="13.90" length="17.69" shape="1152.40,1003.71 1147.63,1006.16 1144.20,1007.52 1140.68,1008.65 1135.59,1010.45"/>
        <lane id=":209_1_1" index="1" speed="13.90" length="17.69" shape="1150.85,1000.91 1146.19,1003.30 1142.85,1004.61 1139.41,1005.71 1134.45,1007.46"/>
        <lane id=":209_1_2" index="2" speed="13.90" length="17.69" shape="1149.29,998.11 1144.75,1000.44 1141.50,1001.71 1138.14,1002.77 1133.31,1004.47"/>
    </edge>