<?xml version="1.0" encoding="UTF-8"?>

<!-- generated on 06/21/18 19:26:29 by Eclipse SUMO GUI Version v0_32_0+1428-4ab3f27cbd
<configuration xmlns:xsi="http://www.w3.org/2001/XMLSchema-instance" xsi:noNamespaceSchemaLocation="http://sumo.dlr.de/xsd/sumoConfiguration.xsd">

    <input>
        <net-file value="./random/random.net.xml"/>
        <route-files value="./random/routes.rou.alt.xml"/>
        <additional-files value="./random/e2.add.xml"/>
    </input>

    <output>
        <tripinfo-output value="./random/random_tripinfo-output_MixedScheduler.xml"/>
    </output>

    <traci_server>
        <remote-port value="51324"/>
    </traci_server>

</configuration>
