<?xml version="1.0" encoding="UTF-8"?>

<!-- generated on 06/24/18 20:12:08 by Eclipse SUMO duarouter Version v0_32_0+1428-4ab3f27cbd
<configuration xmlns:xsi="http://www.w3.org/2001/XMLSchema-instance" xsi:noNamespaceSchemaLocation="http://sumo.dlr.de/xsd/duarouterConfiguration.xsd">

    <input>
        <net-file value="./random/random.net.xml"/>
        <route-files value="./random/trips.trips.xml"/>
    </input>

    <output>
        <output-file value="./random/routes.rou.xml"/>
        <alternatives-output value="./random/routes.rou.alt.xml"/>
    </output>

    <processing>
        <ignore-errors value="true"/>
    </processing>

    <time>
        <begin value="0"/>
        <end value="76.92307692307692"/>
    </time>

    <report>
        <no-warnings value="true"/>
        <no-step-log value="true"/>
    </report>

</configuration>
-->

<routes xmlns:xsi="http://www.w3.org/2001/XMLSchema-instance" xsi:noNamespaceSchemaLocation="http://sumo.dlr.de/xsd/routes_file.xsd">
    <vehicle id="0" depart="0.00">
        <route edges="-3 7"/>
    </vehicle>
    <vehicle id="1" depart="1.00">
        <route edges="-9 3"/>
    </vehicle>
    <vehicle id="2" depart="2.00">
        <route edges="-9 7"/>
    </vehicle>
    <vehicle id="3" depart="3.00">
        <route edges="-7 11"/>
    </vehicle>
    <vehicle id="4" depart="3.00">
        <route edges="-11 9"/>
    </vehicle>
    <vehicle id="5" depart="4.00">
        <route edges="-11 7"/>
    </vehicle>
    <vehicle id="6" depart="4.00">
        <route edges="-11 7"/>
    </vehicle>
    <vehicle id="7" depart="5.00">
        <route edges="-11 3"/>
    </vehicle>
    <vehicle id="8" depart="5.00">
        <route edges="-11 3"/>
    </vehicle>
    <vehicle id="10" depart="5.00">
        <route edges="-11 7"/>
    </vehicle>
    <vehicle id="14" depart="10.00">
        <route edges="-7 9"/>
    </vehicle>
    <vehicle id="15" depart="11.00">
        <route edges="-3 11"/>
    </vehicle>
    <vehicle id="16" depart="11.00">
        <route edges="-7 9"/>
    </vehicle>
    <vehicle id="17" depart="12.00">
        <route edges="-7 9"/>
    </vehicle>
    <vehicle id="18" depart="12.00">
        <route edges="-9 11"/>
    </vehicle>
    <vehicle id="19" depart="13.00">
        <route edges="-3 7"/>
    </vehicle>
    <vehicle id="20" depart="15.00">
        <route edges="-7 11"/>
    </vehicle>
    <vehicle id="21" depart="16.00">
        <route edges="-9 11"/>
    </vehicle>
    <vehicle id="22" depart="16.00">
        <route edges="-11 7"/>
    </vehicle>
    <vehicle id="23" depart="16.00">
        <route edges="-3 9"/>
    </vehicle>
    <vehicle id="24" depart="17.00">
        <route edges="-11 3"/>
    </vehicle>
    <vehicle id="25" depart="18.00">
        <route edges="-9 7"/>
    </vehicle>
    <vehicle id="26" depart="18.00">
        <route edges="-9 11"/>
    </vehicle>
    <vehicle id="27" depart="18.00">
        <route edges="-9 3"/>
    </vehicle>
    <vehicle id="29" depart="19.00">
        <route edges="-7 3"/>
    </vehicle>
    <vehicle id="30" depart="19.00">
        <route edges="-3 7"/>
    </vehicle>
    <vehicle id="31" depart="19.00">
        <route edges="-3 9"/>
    </vehicle>
    <vehicle id="32" depart="20.00">
        <route edges="-7 3"/>
    </vehicle>
    <vehicle id="33" depart="21.00">
        <route edges="-11 3"/>
    </vehicle>
    <vehicle id="34" depart="21.00">
        <route edges="-9 11"/>
    </vehicle>
    <vehicle id="35" depart="21.00">
        <route edges="-9 7"/>
    </vehicle>
    <vehicle id="36" depart="21.00">
        <route edges="-3 11"/>
    </vehicle>
    <vehicle id="37" depart="22.00">
        <route edges="-11 7"/>
    </vehicle>
    <vehicle id="39" depart="23.00">
        <route edges="-9 11"/>
    </vehicle>
    <vehicle id="41" depart="24.00">
        <route edges="-3 9"/>
    </vehicle>
    <vehicle id="42" depart="25.00">
        <route edges="-11 7"/>
    </vehicle>
    <vehicle id="43" depart="25.00">
        <route edges="-3 9"/>
    </vehicle>
    <vehicle id="44" depart="26.00">
        <route edges="-3 11"/>
    </vehicle>
    <vehicle id="45" depart="26.00">
        <route edges="-3 11"/>
    </vehicle>
    <vehicle id="47" depart="26.00">
        <route edges="-9 7"/>
    </vehicle>
    <vehicle id="48" depart="27.00">
        <route edges="-3 9"/>
    </vehicle>
    <vehicle id="49" depart="29.00">
        <route edges="-3 9"/>
    </vehicle>
    <vehicle id="50" depart="29.00">
        <route edges="-3 9"/>
    </vehicle>
    <vehicle id="51" depart="30.00">
        <route edges="-3 7"/>
    </vehicle>
    <vehicle id="53" depart="31.00">
        <route edges="-3 7"/>
    </vehicle>
    <vehicle id="54" depart="31.00">
        <route edges="-3 11"/>
    </vehicle>
    <vehicle id="56" depart="35.00">
        <route edges="-11 9"/>
    </vehicle>
    <vehicle id="58" depart="35.00">
        <route edges="-9 3"/>
    </vehicle>
    <vehicle id="59" depart="35.00">
        <route edges="-3 11"/>
    </vehicle>
    <vehicle id="60" depart="35.00">
        <route edges="-3 7"/>
    </vehicle>
    <vehicle id="62" depart="36.00">
        <route edges="-7 3"/>
    </vehicle>
    <vehicle id="63" depart="37.00">
        <route edges="-7 3"/>
    </vehicle>
    <vehicle id="64" depart="37.00">
        <route edges="-3 7"/>
    </vehicle>
    <vehicle id="65" depart="38.00">
        <route edges="-11 7"/>
    </vehicle>
    <vehicle id="68" depart="41.00">
        <route edges="-11 3"/>
    </vehicle>
    <vehicle id="69" depart="42.00">
        <route edges="-7 11"/>
    </vehicle>
    <vehicle id="70" depart="44.00">
        <route edges="-7 11"/>
    </vehicle>
    <vehicle id="72" depart="45.00">
        <route edges="-7 11"/>
    </vehicle>
    <vehicle id="73" depart="46.00">
        <route edges="-9 3"/>
    </vehicle>
    <vehicle id="76" depart="48.00">
        <route edges="-11 7"/>
    </vehicle>
    <vehicle id="77" depart="48.00">
        <route edges="-3 9"/>
    </vehicle>
    <vehicle id="79" depart="52.00">
        <route edges="-3 11"/>
    </vehicle>
    <vehicle id="80" depart="52.00">
        <route edges="-9 3"/>
    </vehicle>
    <vehicle id="81" depart="52.00">
        <route edges="-3 7"/>
    </vehicle>
    <vehicle id="82" depart="56.00">
        <route edges="-9 7"/>
    </vehicle>
    <vehicle id="83" depart="56.00">
        <route edges="-11 3"/>
    </vehicle>
    <vehicle id="86" depart="60.00">
        <route edges="-11 9"/>
    </vehicle>
    <vehicle id="87" depart="61.00">
        <route edges="-7 3"/>
    </vehicle>
    <vehicle id="89" depart="63.00">
        <route edges="-9 7"/>
    </vehicle>
    <vehicle id="90" depart="63.00">
        <route edges="-3 9"/>
    </vehicle>
    <vehicle id="91" depart="64.00">
        <route edges="-9 7"/>
    </vehicle>
    <vehicle id="92" depart="65.00">
        <route edges="-11 7"/>
    </vehicle>
    <vehicle id="93" depart="65.00">
        <route edges="-9 11"/>
    </vehicle>
    <vehicle id="95" depart="66.00">
        <route edges="-9 11"/>
    </vehicle>
    <vehicle id="96" depart="67.00">
        <route edges="-7 9"/>
    </vehicle>
    <vehicle id="97" depart="68.00">
        <route edges="-7 9"/>
    </vehicle>
    <vehicle id="98" depart="69.00">
        <route edges="-9 11"/>
    </vehicle>
    <vehicle id="99" depart="71.00">
        <route edges="-11 9"/>
    </vehicle>
    <vehicle id="100" depart="72.00">
        <route edges="-7 11"/>
    </vehicle>
    <vehicle id="103" depart="73.00">
        <route edges="-9 11"/>
    </vehicle>
</routes>
