<additional xmlns:xsi="http://www.w3.org/2001/XMLSchema-instance" xsi:noNamespaceSchemaLocation="http://sumo.dlr.de/xsd/additional_file.xsd">
    <laneAreaDetector file="e2_Static.output.xml" freq="60" friendlyPos="x" id="42432184_e2det_-165777195#1_0" lane="-165777195#1_0" length="60" pos="43.99999999999999"/>
    <laneAreaDetector file="e2_Static.output.xml" freq="60" friendlyPos="x" id="42432184_e2det_-165777195#1_1" lane="-165777195#1_1" length="60" pos="43.99999999999999"/>
    <laneAreaDetector file="e2_Static.output.xml" freq="60" friendlyPos="x" id="42432184_e2det_165777195#0_0" lane="165777195#0_0" length="60" pos="11.889999999999995"/>
    <laneAreaDetector file="e2_Static.output.xml" freq="60" friendlyPos="x" id="42432184_e2det_165777195#0_1" lane="165777195#0_1" length="60" pos="11.889999999999995"/>
    <laneAreaDetector file="e2_Static.output.xml" freq="60" friendlyPos="x" id="42432184_e2det_5670079_0" lane="5670079_0" length="60" pos="20.509999999999998"/>
    <laneAreaDetector file="e2_Static.output.xml" freq="60" friendlyPos="x" id="42437589_e2det_-165777195#2_0" lane="-165777195#2_0" length="60" pos="69.95000000000002"/>
    <laneAreaDetector file="e2_Static.output.xml" freq="60" friendlyPos="x" id="42437589_e2det_-165777195#2_1" lane="-165777195#2_1" length="60" pos="69.95000000000002"/>
    <laneAreaDetector file="e2_Static.output.xml" freq="60" friendlyPos="x" id="42437589_e2det_165777195#1_0" lane="165777195#1_0" length="60" pos="43.99999999999999"/>
    <laneAreaDetector file="e2_Static.output.xml" freq="60" friendlyPos="x" id="42437589_e2det_165777195#1_1" lane="165777195#1_1" length="60" pos="43.99999999999999"/>
    <laneAreaDetector file="e2_Static.output.xml" freq="60" friendlyPos="x" id="42437589_e2det_439842831#3_0" lane="439842831#3_0" length="60" pos="9.710000000000003"/>
    <laneAreaDetector file="e2_Static.output.xml" freq="60" friendlyPos="x" id="42437589_e2det_439842831#3_1" lane="439842831#3_1" length="60" pos="9.710000000000003"/>
    <laneAreaDetector file="e2_Static.output.xml" freq="60" friendlyPos="x" id="42437580_e2det_-165777195#3_0" lane="-165777195#3_0" length="5.17" pos="0"/>
    <laneAreaDetector file="e2_Static.output.xml" freq="60" friendlyPos="x" id="42437580_e2det_-165777195#3_1" lane="-165777195#3_1" length="5.17" pos="0"/>
    <laneAreaDetector file="e2_Static.output.xml" freq="60" friendlyPos="x" id="42437580_e2det_165777195#2_0" lane="165777195#2_0" length="60" pos="69.95000000000002"/>
    <laneAreaDetector file="e2_Static.output.xml" freq="60" friendlyPos="x" id="42437580_e2det_165777195#2_1" lane="165777195#2_1" length="60" pos="69.95000000000002"/>
    <laneAreaDetector file="e2_Static.output.xml" freq="60" friendlyPos="x" id="42437580_e2det_5671339#0_0" lane="5671339#0_0" length="60" pos="22.4"/>
    <laneAreaDetector file="e2_Static.output.xml" freq="60" friendlyPos="x" id="42452084_e2det_-194923768#0_0" lane="-194923768#0_0" length="60" pos="51.24"/>
    <laneAreaDetector file="e2_Static.output.xml" freq="60" friendlyPos="x" id="42432099_e2det_-194923768#1_0" lane="-194923768#1_0" length="60" pos="24.68"/>
    <laneAreaDetector file="e2_Static.output.xml" freq="60" friendlyPos="x" id="42432099_e2det_194923768#0_0" lane="194923768#0_0" length="60" pos="51.24"/>
    <laneAreaDetector file="e2_Static.output.xml" freq="60" friendlyPos="x" id="42443127_e2det_-195743157_0" lane="-195743157_0" length="2.83" pos="8.326672684688674e-17"/>
    <laneAreaDetector file="e2_Static.output.xml" freq="60" friendlyPos="x" id="42443127_e2det_-195743157_1" lane="-195743157_1" length="2.83" pos="8.326672684688674e-17"/>
    <laneAreaDetector file="e2_Static.output.xml" freq="60" friendlyPos="x" id="42443127_e2det_452319507#2_0" lane="452319507#2_0" length="0.8" pos="0"/>
    <laneAreaDetector file="e2_Static.output.xml" freq="60" friendlyPos="x" id="42443127_e2det_452319507#2_1" lane="452319507#2_1" length="0.8" pos="0"/>
    <laneAreaDetector file="e2_Static.output.xml" freq="60" friendlyPos="x" id="42443127_e2det_452319507#2_2" lane="452319507#2_2" length="0.8" pos="0"/>
    <laneAreaDetector file="e2_Static.output.xml" freq="60" friendlyPos="x" id="42443127_e2det_5671083_0" lane="5671083_0" length="27.459999999999997" pos="1.4155343563970746e-15"/>
    <laneAreaDetector file="e2_Static.output.xml" freq="60" friendlyPos="x" id="42443127_e2det_5671083_1" lane="5671083_1" length="27.459999999999997" pos="1.4155343563970746e-15"/>
    <laneAreaDetector file="e2_Static.output.xml" freq="60" friendlyPos="x" id="42455039_e2det_-195743554#0_0" lane="-195743554#0_0" length="3.4899999999999998" pos="8.326672684688674e-17"/>
    <laneAreaDetector file="e2_Static.output.xml" freq="60" friendlyPos="x" id="42455039_e2det_-456315007_0" lane="-456315007_0" length="4.380000000000001" pos="0"/>
    <laneAreaDetector file="e2_Static.output.xml" freq="60" friendlyPos="x" id="42455039_e2det_-456315007_1" lane="-456315007_1" length="4.380000000000001" pos="0"/>
    <laneAreaDetector file="e2_Static.output.xml" freq="60" friendlyPos="x" id="42455039_e2det_195745916#1_0" lane="195745916#1_0" length="0.28" pos="0"/>
    <laneAreaDetector file="e2_Static.output.xml" freq="60" friendlyPos="x" id="42455039_e2det_195745916#1_1" lane="195745916#1_1" length="0.28" pos="0"/>
    <laneAreaDetector file="e2_Static.output.xml" freq="60" friendlyPos="x" id="4216045800_e2det_-195743554#10_0" lane="-195743554#10_0" length="60" pos="1.65"/>
    <laneAreaDetector file="e2_Static.output.xml" freq="60" friendlyPos="x" id="4216045800_e2det_195743554#9_0" lane="195743554#9_0" length="5.67" pos="0"/>
    <laneAreaDetector file="e2_Static.output.xml" freq="60" friendlyPos="x" id="4216045802_e2det_-195743554#11_0" lane="-195743554#11_0" length="6.71" pos="0"/>
    <laneAreaDetector file="e2_Static.output.xml" freq="60" friendlyPos="x" id="4216045802_e2det_195743554#10_0" lane="195743554#10_0" length="60" pos="1.65"/>
    <laneAreaDetector file="e2_Static.output.xml" freq="60" friendlyPos="x" id="42453604_e2det_-195743554#2_0" lane="-195743554#2_0" length="60" pos="14.930000000000001"/>
    <laneAreaDetector file="e2_Static.output.xml" freq="60" friendlyPos="x" id="42453604_e2det_195743554#1_0" lane="195743554#1_0" length="60" pos="14.490000000000004"/>
    <laneAreaDetector file="e2_Static.output.xml" freq="60" friendlyPos="x" id="42453604_e2det_25163419#2_0" lane="25163419#2_0" length="60" pos="154.24"/>
    <laneAreaDetector file="e2_Static.output.xml" freq="60" friendlyPos="x" id="42437343_e2det_-195743554#3_0" lane="-195743554#3_0" length="60" pos="12.249999999999995"/>
    <laneAreaDetector file="e2_Static.output.xml" freq="60" friendlyPos="x" id="42437343_e2det_195743554#2_0" lane="195743554#2_0" length="60" pos="14.930000000000001"/>
    <laneAreaDetector file="e2_Static.output.xml" freq="60" friendlyPos="x" id="42437343_e2det_479642043#1_0" lane="479642043#1_0" length="60" pos="154.66"/>
    <laneAreaDetector file="e2_Static.output.xml" freq="60" friendlyPos="x" id="42455051_e2det_-195743554#4_0" lane="-195743554#4_0" length="60" pos="9.160000000000005"/>
    <laneAreaDetector file="e2_Static.output.xml" freq="60" friendlyPos="x" id="42455051_e2det_195743554#3_0" lane="195743554#3_0" length="60" pos="12.249999999999995"/>
    <laneAreaDetector file="e2_Static.output.xml" freq="60" friendlyPos="x" id="42455051_e2det_479642042#1_0" lane="479642042#1_0" length="60" pos="75.69"/>
    <laneAreaDetector file="e2_Static.output.xml" freq="60" friendlyPos="x" id="42453175_e2det_-195743554#5_0" lane="-195743554#5_0" length="1.7799999999999998" pos="8.326672684688674e-17"/>
    <laneAreaDetector file="e2_Static.output.xml" freq="60" friendlyPos="x" id="42453175_e2det_195743554#4_0" lane="195743554#4_0" length="60" pos="9.160000000000005"/>
    <laneAreaDetector file="e2_Static.output.xml" freq="60" friendlyPos="x" id="42453175_e2det_5672187_0" lane="5672187_0" length="60" pos="154.67000000000002"/>
    <laneAreaDetector file="e2_Static.output.xml" freq="60" friendlyPos="x" id="42444829_e2det_-195743554#7_0" lane="-195743554#7_0" length="60" pos="1.0099999999999993"/>
    <laneAreaDetector file="e2_Static.output.xml" freq="60" friendlyPos="x" id="42444829_e2det_195743554#6_0" lane="195743554#6_0" length="58.269999999999996" pos="1.4155343563970746e-15"/>
    <laneAreaDetector file="e2_Static.output.xml" freq="60" friendlyPos="x" id="42444829_e2det_46608205#1_0" lane="46608205#1_0" length="43.35" pos="1.4155343563970746e-15"/>
    <laneAreaDetector file="e2_Static.output.xml" freq="60" friendlyPos="x" id="42444829_e2det_46608205#1_1" lane="46608205#1_1" length="43.35" pos="1.4155343563970746e-15"/>
    <laneAreaDetector file="e2_Static.output.xml" freq="60" friendlyPos="x" id="4216045808_e2det_-195743554#8_0" lane="-195743554#8_0" length="4.32" pos="0"/>
    <laneAreaDetector file="e2_Static.output.xml" freq="60" friendlyPos="x" id="4216045808_e2det_195743554#7_0" lane="195743554#7_0" length="60" pos="1.0099999999999993"/>
    <laneAreaDetector file="e2_Static.output.xml" freq="60" friendlyPos="x" id="42434215_e2det_-195743554#9_0" lane="-195743554#9_0" length="5.67" pos="0"/>
    <laneAreaDetector file="e2_Static.output.xml" freq="60" friendlyPos="x" id="42434215_e2det_195743554#8_0" lane="195743554#8_0" length="4.32" pos="0"/>
    <laneAreaDetector file="e2_Static.output.xml" freq="60" friendlyPos="x" id="42434215_e2det_46582968#5_0" lane="46582968#5_0" length="5.67" pos="0"/>
    <laneAreaDetector file="e2_Static.output.xml" freq="60" friendlyPos="x" id="486867513_e2det_-231393430_0" lane="-231393430_0" length="9.360000000000001" pos="0"/>
    <laneAreaDetector file="e2_Static.output.xml" freq="60" friendlyPos="x" id="486867513_e2det_194923768#2_0" lane="194923768#2_0" length="2.05" pos="8.326672684688674e-17"/>
    <laneAreaDetector file="e2_Static.output.xml" freq="60" friendlyPos="x" id="486867513_e2det_421827962_0" lane="421827962_0" length="23.439999999999998" pos="1.4155343563970746e-15"/>
    <laneAreaDetector file="e2_Static.output.xml" freq="60" friendlyPos="x" id="486867513_e2det_421827962_1" lane="421827962_1" length="23.439999999999998" pos="1.4155343563970746e-15"/>
    <laneAreaDetector file="e2_Static.output.xml" freq="60" friendlyPos="x" id="1919595912_e2det_-374923972_0" lane="-374923972_0" length="7.92" pos="0"/>
    <laneAreaDetector file="e2_Static.output.xml" freq="60" friendlyPos="x" id="1919595912_e2det_199927850#1_0" lane="199927850#1_0" length="60" pos="0.7200000000000003"/>
    <laneAreaDetector file="e2_Static.output.xml" freq="60" friendlyPos="x" id="1919595912_e2det_199927850#1_1" lane="199927850#1_1" length="60" pos="0.7200000000000003"/>
    <laneAreaDetector file="e2_Static.output.xml" freq="60" friendlyPos="x" id="1919595912_e2det_362811088#1_0" lane="362811088#1_0" length="0.30999999999999994" pos="2.7755575615628914e-17"/>
    <laneAreaDetector file="e2_Static.output.xml" freq="60" friendlyPos="x" id="1773076511_e2det_-420354142_0" lane="-420354142_0" length="1.18" pos="8.326672684688674e-17"/>
    <laneAreaDetector file="e2_Static.output.xml" freq="60" friendlyPos="x" id="1773076511_e2det_-420354142_1" lane="-420354142_1" length="1.18" pos="8.326672684688674e-17"/>
    <laneAreaDetector file="e2_Static.output.xml" freq="60" friendlyPos="x" id="1773076511_e2det_165777194_0" lane="165777194_0" length="6.11" pos="0"/>
    <laneAreaDetector file="e2_Static.output.xml" freq="60" friendlyPos="x" id="1773076511_e2det_165777194_1" lane="165777194_1" length="6.11" pos="0"/>
    <laneAreaDetector file="e2_Static.output.xml" freq="60" friendlyPos="x" id="1773076511_e2det_420354147_0" lane="420354147_0" length="56.92" pos="1.4155343563970746e-15"/>
    <laneAreaDetector file="e2_Static.output.xml" freq="60" friendlyPos="x" id="1773076511_e2det_420354147_1" lane="420354147_1" length="56.92" pos="1.4155343563970746e-15"/>
    <laneAreaDetector file="e2_Static.output.xml" freq="60" friendlyPos="x" id="42429773_e2det_-421826773_0" lane="-421826773_0" length="44.68" pos="1.4155343563970746e-15"/>
    <laneAreaDetector file="e2_Static.output.xml" freq="60" friendlyPos="x" id="42429773_e2det_-421826773_1" lane="-421826773_1" length="44.68" pos="1.4155343563970746e-15"/>
    <laneAreaDetector file="e2_Static.output.xml" freq="60" friendlyPos="x" id="42429773_e2det_231393430_0" lane="231393430_0" length="9.360000000000001" pos="0"/>
    <laneAreaDetector file="e2_Static.output.xml" freq="60" friendlyPos="x" id="42429773_e2det_420354145_0" lane="420354145_0" length="60" pos="0.5099999999999995"/>
    <laneAreaDetector file="e2_Static.output.xml" freq="60" friendlyPos="x" id="42429773_e2det_420354145_1" lane="420354145_1" length="60" pos="0.5099999999999995"/>
    <laneAreaDetector file="e2_Static.output.xml" freq="60" friendlyPos="x" id="42452067_e2det_-454031476#0_1" lane="-454031476#0_1" length="60" pos="40.63"/>
    <laneAreaDetector file="e2_Static.output.xml" freq="60" friendlyPos="x" id="42452067_e2det_439842831#4_0" lane="439842831#4_0" length="60" pos="13.910000000000005"/>
    <laneAreaDetector file="e2_Static.output.xml" freq="60" friendlyPos="x" id="42452067_e2det_439842831#4_1" lane="439842831#4_1" length="60" pos="13.910000000000005"/>
    <laneAreaDetector file="e2_Static.output.xml" freq="60" friendlyPos="x" id="42432085_e2det_-454031476#1_0" lane="-454031476#1_0" length="60" pos="23.249999999999993"/>
    <laneAreaDetector file="e2_Static.output.xml" freq="60" friendlyPos="x" id="42432085_e2det_-454031476#1_1" lane="-454031476#1_1" length="60" pos="23.249999999999993"/>
    <laneAreaDetector file="e2_Static.output.xml" freq="60" friendlyPos="x" id="42432085_e2det_454031476#0_0" lane="454031476#0_0" length="60" pos="40.63"/>
    <laneAreaDetector file="e2_Static.output.xml" freq="60" friendlyPos="x" id="42432085_e2det_454031476#0_1" lane="454031476#0_1" length="60" pos="40.63"/>
    <laneAreaDetector file="e2_Static.output.xml" freq="60" friendlyPos="x" id="486869282_e2det_-454963832#0_0" lane="-454963832#0_0" length="5.24" pos="0"/>
    <laneAreaDetector file="e2_Static.output.xml" freq="60" friendlyPos="x" id="486869282_e2det_-454963832#0_1" lane="-454963832#0_1" length="5.24" pos="0"/>
    <laneAreaDetector file="e2_Static.output.xml" freq="60" friendlyPos="x" id="486869282_e2det_457937087_0" lane="457937087_0" length="0.30000000000000004" pos="0"/>
    <laneAreaDetector file="e2_Static.output.xml" freq="60" friendlyPos="x" id="486869282_e2det_457937087_1" lane="457937087_1" length="0.30000000000000004" pos="0"/>
    <laneAreaDetector file="e2_Static.output.xml" freq="60" friendlyPos="x" id="486869282_e2det_46139043_0" lane="46139043_0" length="8.41" pos="0"/>
    <laneAreaDetector file="e2_Static.output.xml" freq="60" friendlyPos="x" id="486869282_e2det_46139043_1" lane="46139043_1" length="8.41" pos="0"/>
    <laneAreaDetector file="e2_Static.output.xml" freq="60" friendlyPos="x" id="42437113_e2det_-454963832#2_0" lane="-454963832#2_0" length="60" pos="72.23000000000002"/>
    <laneAreaDetector file="e2_Static.output.xml" freq="60" friendlyPos="x" id="42437113_e2det_-454963832#2_1" lane="-454963832#2_1" length="60" pos="72.23000000000002"/>
    <laneAreaDetector file="e2_Static.output.xml" freq="60" friendlyPos="x" id="42437113_e2det_454963832#1_0" lane="454963832#1_0" length="60" pos="65.52000000000001"/>
    <laneAreaDetector file="e2_Static.output.xml" freq="60" friendlyPos="x" id="42437113_e2det_454963832#1_1" lane="454963832#1_1" length="60" pos="65.52000000000001"/>
    <laneAreaDetector file="e2_Static.output.xml" freq="60" friendlyPos="x" id="42432083_e2det_-454963832#3_0" lane="-454963832#3_0" length="60" pos="71.45000000000002"/>
    <laneAreaDetector file="e2_Static.output.xml" freq="60" friendlyPos="x" id="42432083_e2det_-454963832#3_1" lane="-454963832#3_1" length="60" pos="71.45000000000002"/>
    <laneAreaDetector file="e2_Static.output.xml" freq="60" friendlyPos="x" id="42432083_e2det_454963832#2_0" lane="454963832#2_0" length="60" pos="72.23000000000002"/>
    <laneAreaDetector file="e2_Static.output.xml" freq="60" friendlyPos="x" id="42432083_e2det_454963832#2_1" lane="454963832#2_1" length="60" pos="72.23000000000002"/>
    <laneAreaDetector file="e2_Static.output.xml" freq="60" friendlyPos="x" id="42432083_e2det_5670077#1_0" lane="5670077#1_0" length="60" pos="52.12"/>
    <laneAreaDetector file="e2_Static.output.xml" freq="60" friendlyPos="x" id="4539951606_e2det_-457937095#0_0" lane="-457937095#0_0" length="60" pos="46.07"/>
    <laneAreaDetector file="e2_Static.output.xml" freq="60" friendlyPos="x" id="42429754_e2det_-46139043_0" lane="-46139043_0" length="8.41" pos="0"/>
    <laneAreaDetector file="e2_Static.output.xml" freq="60" friendlyPos="x" id="42429754_e2det_-46139043_1" lane="-46139043_1" length="8.41" pos="0"/>
    <laneAreaDetector file="e2_Static.output.xml" freq="60" friendlyPos="x" id="42429754_e2det_421827957_0" lane="421827957_0" length="47.4" pos="1.4155343563970746e-15"/>
    <laneAreaDetector file="e2_Static.output.xml" freq="60" friendlyPos="x" id="42429754_e2det_421827957_1" lane="421827957_1" length="47.4" pos="1.4155343563970746e-15"/>
    <laneAreaDetector file="e2_Static.output.xml" freq="60" friendlyPos="x" id="42429754_e2det_454031476#2_0" lane="454031476#2_0" length="5.67" pos="0"/>
    <laneAreaDetector file="e2_Static.output.xml" freq="60" friendlyPos="x" id="42429754_e2det_454031476#2_1" lane="454031476#2_1" length="5.67" pos="0"/>
    <laneAreaDetector file="e2_Static.output.xml" freq="60" friendlyPos="x" id="42437084_e2det_-46201668#1_0" lane="-46201668#1_0" length="60" pos="70.78999999999999"/>
    <laneAreaDetector file="e2_Static.output.xml" freq="60" friendlyPos="x" id="42437084_e2det_-46201668#1_1" lane="-46201668#1_1" length="60" pos="70.78999999999999"/>
    <laneAreaDetector file="e2_Static.output.xml" freq="60" friendlyPos="x" id="42437084_e2det_112116235#3_0" lane="112116235#3_0" length="60" pos="0.6800000000000012"/>
    <laneAreaDetector file="e2_Static.output.xml" freq="60" friendlyPos="x" id="42437084_e2det_46201668#0_0" lane="46201668#0_0" length="60" pos="31.729999999999997"/>
    <laneAreaDetector file="e2_Static.output.xml" freq="60" friendlyPos="x" id="42437084_e2det_46201668#0_1" lane="46201668#0_1" length="60" pos="31.729999999999997"/>
    <laneAreaDetector file="e2_Static.output.xml" freq="60" friendlyPos="x" id="42432068_e2det_-46201668#2_0" lane="-46201668#2_0" length="60" pos="65.60000000000001"/>
    <laneAreaDetector file="e2_Static.output.xml" freq="60" friendlyPos="x" id="42432068_e2det_-46201668#2_1" lane="-46201668#2_1" length="60" pos="65.60000000000001"/>
    <laneAreaDetector file="e2_Static.output.xml" freq="60" friendlyPos="x" id="42432068_e2det_110854073#1_0" lane="110854073#1_0" length="60" pos="3.2900000000000005"/>
    <laneAreaDetector file="e2_Static.output.xml" freq="60" friendlyPos="x" id="42432068_e2det_46201668#1_0" lane="46201668#1_0" length="60" pos="70.78999999999999"/>
    <laneAreaDetector file="e2_Static.output.xml" freq="60" friendlyPos="x" id="42432068_e2det_46201668#1_1" lane="46201668#1_1" length="60" pos="70.78999999999999"/>
    <laneAreaDetector file="e2_Static.output.xml" freq="60" friendlyPos="x" id="42427352_e2det_-46350695_0" lane="-46350695_0" length="60" pos="150.29"/>
    <laneAreaDetector file="e2_Static.output.xml" freq="60" friendlyPos="x" id="42427352_e2det_110854073#8_0" lane="110854073#8_0" length="7.07" pos="0"/>
    <laneAreaDetector file="e2_Static.output.xml" freq="60" friendlyPos="x" id="42427352_e2det_492148701#2_0" lane="492148701#2_0" length="1.47" pos="8.326672684688674e-17"/>
    <laneAreaDetector file="e2_Static.output.xml" freq="60" friendlyPos="x" id="1919595921_e2det_-524382712_0" lane="-524382712_0" length="6.04" pos="0"/>
    <laneAreaDetector file="e2_Static.output.xml" freq="60" friendlyPos="x" id="1919595921_e2det_357946354#3_0" lane="357946354#3_0" length="2.3" pos="8.326672684688674e-17"/>
    <laneAreaDetector file="e2_Static.output.xml" freq="60" friendlyPos="x" id="1919595921_e2det_420351720#1_0" lane="420351720#1_0" length="1.88" pos="8.326672684688674e-17"/>
    <laneAreaDetector file="e2_Static.output.xml" freq="60" friendlyPos="x" id="1919595921_e2det_420351720#1_1" lane="420351720#1_1" length="1.88" pos="8.326672684688674e-17"/>
    <laneAreaDetector file="e2_Static.output.xml" freq="60" friendlyPos="x" id="42429752_e2det_-5669892#0_0" lane="-5669892#0_0" length="60" pos="8.889999999999995"/>
    <laneAreaDetector file="e2_Static.output.xml" freq="60" friendlyPos="x" id="42429752_e2det_-5669892#0_1" lane="-5669892#0_1" length="60" pos="8.889999999999995"/>
    <laneAreaDetector file="e2_Static.output.xml" freq="60" friendlyPos="x" id="42429752_e2det_420354142_0" lane="420354142_0" length="1.18" pos="8.326672684688674e-17"/>
    <laneAreaDetector file="e2_Static.output.xml" freq="60" friendlyPos="x" id="42429752_e2det_420354142_1" lane="420354142_1" length="1.18" pos="8.326672684688674e-17"/>
    <laneAreaDetector file="e2_Static.output.xml" freq="60" friendlyPos="x" id="42429752_e2det_420355078_0" lane="420355078_0" length="46.46" pos="1.4155343563970746e-15"/>
    <laneAreaDetector file="e2_Static.output.xml" freq="60" friendlyPos="x" id="42429752_e2det_420355078_1" lane="420355078_1" length="46.46" pos="1.4155343563970746e-15"/>
    <laneAreaDetector file="e2_Static.output.xml" freq="60" friendlyPos="x" id="42430030_e2det_-5669892#1_0" lane="-5669892#1_0" length="60" pos="4.4100000000000055"/>
    <laneAreaDetector file="e2_Static.output.xml" freq="60" friendlyPos="x" id="42430030_e2det_-5669892#1_1" lane="-5669892#1_1" length="60" pos="4.4100000000000055"/>
    <laneAreaDetector file="e2_Static.output.xml" freq="60" friendlyPos="x" id="42430030_e2det_188559800#4_0" lane="188559800#4_0" length="60" pos="16.729999999999997"/>
    <laneAreaDetector file="e2_Static.output.xml" freq="60" friendlyPos="x" id="42430030_e2det_5669892#0_0" lane="5669892#0_0" length="60" pos="8.889999999999995"/>
    <laneAreaDetector file="e2_Static.output.xml" freq="60" friendlyPos="x" id="42430030_e2det_5669892#0_1" lane="5669892#0_1" length="60" pos="8.889999999999995"/>
    <laneAreaDetector file="e2_Static.output.xml" freq="60" friendlyPos="x" id="42430034_e2det_-5669892#2_0" lane="-5669892#2_0" length="60" pos="8.059999999999997"/>
    <laneAreaDetector file="e2_Static.output.xml" freq="60" friendlyPos="x" id="42430034_e2det_-5669892#2_1" lane="-5669892#2_1" length="60" pos="8.059999999999997"/>
    <laneAreaDetector file="e2_Static.output.xml" freq="60" friendlyPos="x" id="42430034_e2det_5669892#1_0" lane="5669892#1_0" length="60" pos="4.4100000000000055"/>
    <laneAreaDetector file="e2_Static.output.xml" freq="60" friendlyPos="x" id="42430034_e2det_5669892#1_1" lane="5669892#1_1" length="60" pos="4.4100000000000055"/>
    <laneAreaDetector file="e2_Static.output.xml" freq="60" friendlyPos="x" id="42430034_e2det_5670092#7_0" lane="5670092#7_0" length="60" pos="12.790000000000001"/>
    <laneAreaDetector file="e2_Static.output.xml" freq="60" friendlyPos="x" id="42430038_e2det_-5669892#3_0" lane="-5669892#3_0" length="60" pos="6.609999999999994"/>
    <laneAreaDetector file="e2_Static.output.xml" freq="60" friendlyPos="x" id="42430038_e2det_-5669892#3_1" lane="-5669892#3_1" length="60" pos="6.609999999999994"/>
    <laneAreaDetector file="e2_Static.output.xml" freq="60" friendlyPos="x" id="42430038_e2det_5669892#2_0" lane="5669892#2_0" length="60" pos="8.059999999999997"/>
    <laneAreaDetector file="e2_Static.output.xml" freq="60" friendlyPos="x" id="42430038_e2det_5669892#2_1" lane="5669892#2_1" length="60" pos="8.059999999999997"/>
    <laneAreaDetector file="e2_Static.output.xml" freq="60" friendlyPos="x" id="42430038_e2det_5670366#5_0" lane="5670366#5_0" length="60" pos="7.240000000000004"/>
    <laneAreaDetector file="e2_Static.output.xml" freq="60" friendlyPos="x" id="42430041_e2det_-5669892#4_0" lane="-5669892#4_0" length="0.1" pos="0"/>
    <laneAreaDetector file="e2_Static.output.xml" freq="60" friendlyPos="x" id="42430041_e2det_-5669892#4_1" lane="-5669892#4_1" length="0.1" pos="0"/>
    <laneAreaDetector file="e2_Static.output.xml" freq="60" friendlyPos="x" id="42430041_e2det_5669892#3_0" lane="5669892#3_0" length="60" pos="6.609999999999994"/>
    <laneAreaDetector file="e2_Static.output.xml" freq="60" friendlyPos="x" id="42430041_e2det_5669892#3_1" lane="5669892#3_1" length="60" pos="6.609999999999994"/>
    <laneAreaDetector file="e2_Static.output.xml" freq="60" friendlyPos="x" id="42430041_e2det_5672321#1_0" lane="5672321#1_0" length="0.1" pos="0"/>
    <laneAreaDetector file="e2_Static.output.xml" freq="60" friendlyPos="x" id="42430041_e2det_5672321#1_1" lane="5672321#1_1" length="0.1" pos="0"/>
    <laneAreaDetector file="e2_Static.output.xml" freq="60" friendlyPos="x" id="42440401_e2det_-5672621#0_0" lane="-5672621#0_0" length="0.9600000000000001" pos="0"/>
    <laneAreaDetector file="e2_Static.output.xml" freq="60" friendlyPos="x" id="42440401_e2det_421825695#1_0" lane="421825695#1_0" length="0.52" pos="0"/>
    <laneAreaDetector file="e2_Static.output.xml" freq="60" friendlyPos="x" id="42440401_e2det_421825695#1_1" lane="421825695#1_1" length="0.52" pos="0"/>
    <laneAreaDetector file="e2_Static.output.xml" freq="60" friendlyPos="x" id="42440401_e2det_524382712_0" lane="524382712_0" length="6.04" pos="0"/>
    <laneAreaDetector file="e2_Static.output.xml" freq="60" friendlyPos="x" id="4216045854_e2det_-5672621#10_0" lane="-5672621#10_0" length="5.54" pos="0"/>
    <laneAreaDetector file="e2_Static.output.xml" freq="60" friendlyPos="x" id="4216045854_e2det_5672621#9_0" lane="5672621#9_0" length="60" pos="2.879999999999997"/>
    <laneAreaDetector file="e2_Static.output.xml" freq="60" friendlyPos="x" id="2324482224_e2det_-5672621#11_0" lane="-5672621#11_0" length="6.61" pos="0"/>
    <laneAreaDetector file="e2_Static.output.xml" freq="60" friendlyPos="x" id="2324482224_e2det_5672621#10_0" lane="5672621#10_0" length="5.54" pos="0"/>
    <laneAreaDetector file="e2_Static.output.xml" freq="60" friendlyPos="x" id="4216045821_e2det_-5672621#12_0" lane="-5672621#12_0" length="60" pos="1.9700000000000002"/>
    <laneAreaDetector file="e2_Static.output.xml" freq="60" friendlyPos="x" id="4216045821_e2det_5672621#11_0" lane="5672621#11_0" length="6.61" pos="0"/>
    <laneAreaDetector file="e2_Static.output.xml" freq="60" friendlyPos="x" id="4216045810_e2det_-5672621#13_0" lane="-5672621#13_0" length="5.9" pos="0"/>
    <laneAreaDetector file="e2_Static.output.xml" freq="60" friendlyPos="x" id="4216045810_e2det_5672621#12_0" lane="5672621#12_0" length="60" pos="1.9700000000000002"/>
    <laneAreaDetector file="e2_Static.output.xml" freq="60" friendlyPos="x" id="42449027_e2det_-5672621#14_0" lane="-5672621#14_0" length="6.7700000000000005" pos="0"/>
    <laneAreaDetector file="e2_Static.output.xml" freq="60" friendlyPos="x" id="42449027_e2det_5672621#13_0" lane="5672621#13_0" length="5.9" pos="0"/>
    <laneAreaDetector file="e2_Static.output.xml" freq="60" friendlyPos="x" id="4216045832_e2det_-5672621#15_0" lane="-5672621#15_0" length="60" pos="0.7800000000000026"/>
    <laneAreaDetector file="e2_Static.output.xml" freq="60" friendlyPos="x" id="4216045832_e2det_5672621#14_0" lane="5672621#14_0" length="6.7700000000000005" pos="0"/>
    <laneAreaDetector file="e2_Static.output.xml" freq="60" friendlyPos="x" id="4216045835_e2det_-5672621#16_0" lane="-5672621#16_0" length="5.54" pos="0"/>
    <laneAreaDetector file="e2_Static.output.xml" freq="60" friendlyPos="x" id="4216045835_e2det_5672621#15_0" lane="5672621#15_0" length="60" pos="0.7800000000000026"/>
    <laneAreaDetector file="e2_Static.output.xml" freq="60" friendlyPos="x" id="42430924_e2det_-5672621#17_0" lane="-5672621#17_0" length="6.390000000000001" pos="0"/>
    <laneAreaDetector file="e2_Static.output.xml" freq="60" friendlyPos="x" id="42430924_e2det_5672621#16_0" lane="5672621#16_0" length="5.54" pos="0"/>
    <laneAreaDetector file="e2_Static.output.xml" freq="60" friendlyPos="x" id="4216045798_e2det_-5672621#18_0" lane="-5672621#18_0" length="60" pos="9.160000000000005"/>
    <laneAreaDetector file="e2_Static.output.xml" freq="60" friendlyPos="x" id="4216045798_e2det_5672621#17_0" lane="5672621#17_0" length="6.390000000000001" pos="0"/>
    <laneAreaDetector file="e2_Static.output.xml" freq="60" friendlyPos="x" id="42455007_e2det_-5672621#19_0" lane="-5672621#19_0" length="60" pos="20.839999999999996"/>
    <laneAreaDetector file="e2_Static.output.xml" freq="60" friendlyPos="x" id="42455007_e2det_5672621#18_0" lane="5672621#18_0" length="60" pos="9.160000000000005"/>
    <laneAreaDetector file="e2_Static.output.xml" freq="60" friendlyPos="x" id="42453607_e2det_-5672621#2_0" lane="-5672621#2_0" length="60" pos="16.630000000000003"/>
    <laneAreaDetector file="e2_Static.output.xml" freq="60" friendlyPos="x" id="42453607_e2det_25163419#1_0" lane="25163419#1_0" length="60" pos="163.20000000000002"/>
    <laneAreaDetector file="e2_Static.output.xml" freq="60" friendlyPos="x" id="42453607_e2det_5672621#1_0" lane="5672621#1_0" length="44.37" pos="1.4155343563970746e-15"/>
    <laneAreaDetector file="e2_Static.output.xml" freq="60" friendlyPos="x" id="42446562_e2det_-5672621#20_0" lane="-5672621#20_0" length="60" pos="20.660000000000004"/>
    <laneAreaDetector file="e2_Static.output.xml" freq="60" friendlyPos="x" id="42446562_e2det_5672621#19_0" lane="5672621#19_0" length="60" pos="20.839999999999996"/>
    <laneAreaDetector file="e2_Static.output.xml" freq="60" friendlyPos="x" id="42436947_e2det_-5672621#21_0" lane="-5672621#21_0" length="60" pos="27.869999999999997"/>
    <laneAreaDetector file="e2_Static.output.xml" freq="60" friendlyPos="x" id="42436947_e2det_5672621#20_0" lane="5672621#20_0" length="60" pos="20.660000000000004"/>