<?xml version="1.0" encoding="UTF-8"?>

<!-- generated on 06/17/18 23:44:37 by Eclipse SUMO netconvert Version v0_32_0+1445-5aa8ffc0a4
<configuration xmlns:xsi="http://www.w3.org/2001/XMLSchema-instance" xsi:noNamespaceSchemaLocation="http://sumo.dlr.de/xsd/netconvertConfiguration.xsd">

    <input>
        <osm-files value="New_York.osm"/>
    </input>

    <projection>
        <proj.utm value="true"/>
    </projection>

</configuration>
-->

<net version="0.27" xmlns:xsi="http://www.w3.org/2001/XMLSchema-instance" xsi:noNamespaceSchemaLocation="http://sumo.dlr.de/xsd/net_file.xsd">

    <location netOffset="-584071.28,-4507035.71" convBoundary="0.00,0.00,2514.54,2912.07" origBoundary="-74.004679,40.709817,-73.974771,40.735985" projParameter="+proj=utm +zone=18 +ellps=WGS84 +datum=WGS84 +units=m +no_defs"/>

    <type id="highway.bridleway" priority="1" numLanes="1" speed="2.78" allow="pedestrian" oneway="1" width="2.00"/>
    <type id="highway.bus_guideway" priority="1" numLanes="1" speed="27.78" allow="bus" oneway="1"/>
    <type id="highway.cycleway" priority="1" numLanes="1" speed="8.33" allow="bicycle" oneway="0" width="1.00"/>
    <type id="highway.footway" priority="1" numLanes="1" speed="2.78" allow="pedestrian" oneway="1" width="2.00"/>
    <type id="highway.ford" priority="1" numLanes="1" speed="2.78" allow="army" oneway="0"/>
    <type id="highway.living_street" priority="3" numLanes="1" speed="2.78" disallow="tram rail_urban rail rail_electric ship" oneway="0"/>
    <type id="highway.motorway" priority="13" numLanes="2" speed="44.44" allow="private emergency authority army vip passenger hov taxi bus coach delivery truck trailer motorcycle evehicle custom1 custom2" oneway="1"/>
    <type id="highway.motorway_link" priority="12" numLanes="1" speed="22.22" allow="private emergency authority army vip passenger hov taxi bus coach delivery truck trailer motorcycle evehicle custom1 custom2" oneway="1"/>
    <type id="highway.path" priority="1" numLanes="1" speed="2.78" allow="bicycle pedestrian" oneway="1" width="2.00"/>
    <type id="highway.pedestrian" priority="1" numLanes="1" speed="2.78" allow="pedestrian" oneway="1" width="2.00"/>
    <type id="highway.primary" priority="9" numLanes="2" speed="27.78" disallow="tram rail_urban rail rail_electric ship" oneway="0"/>
    <type id="highway.primary_link" priority="8" numLanes="1" speed="22.22" disallow="tram rail_urban rail rail_electric ship" oneway="0"/>
    <type id="highway.raceway" priority="14" numLanes="2" speed="83.33" allow="vip" oneway="0"/>
    <type id="highway.residential" priority="4" numLanes="1" speed="13.89" disallow="tram rail_urban rail rail_electric ship" oneway="0"/>
    <type id="highway.secondary" priority="7" numLanes="2" speed="27.78" disallow="tram rail_urban rail rail_electric ship" oneway="0"/>
    <type id="highway.secondary_link" priority="6" numLanes="1" speed="22.22" disallow="tram rail_urban rail rail_electric ship" oneway="0"/>
    <type id="highway.service" priority="2" numLanes="1" speed="5.56" allow="delivery bicycle pedestrian" oneway="0"/>
    <type id="highway.services" priority="1" numLanes="1" speed="8.33" disallow="tram rail_urban rail rail_electric ship" oneway="0"/>
    <type id="highway.stairs" priority="1" numLanes="1" speed="1.39" allow="pedestrian" oneway="1" width="2.00"/>
    <type id="highway.step" priority="1" numLanes="1" speed="1.39" allow="pedestrian" oneway="1" width="2.00"/>
    <type id="highway.steps" priority="1" numLanes="1" speed="1.39" allow="pedestrian" oneway="1" width="2.00"/>
    <type id="highway.tertiary" priority="6" numLanes="1" speed="22.22" disallow="tram rail_urban rail rail_electric ship" oneway="0"/>
    <type id="highway.tertiary_link" priority="5" numLanes="1" speed="22.22" disallow="tram rail_urban rail rail_electric ship" oneway="0"/>
    <type id="highway.track" priority="1" numLanes="1" speed="5.56" disallow="tram rail_urban rail rail_electric ship" oneway="0"/>
    <type id="highway.trunk" priority="11" numLanes="2" speed="27.78" disallow="tram rail_urban rail rail_electric bicycle pedestrian ship" oneway="0"/>
    <type id="highway.trunk_link" priority="10" numLanes="1" speed="22.22" disallow="tram rail_urban rail rail_electric bicycle pedestrian ship" oneway="0"/>
    <type id="highway.unclassified" priority="5" numLanes="1" speed="13.89" disallow="tram rail_urban rail rail_electric ship" oneway="0"/>
    <type id="highway.unsurfaced" priority="1" numLanes="1" speed="8.33" disallow="tram rail_urban rail rail_electric ship" oneway="0"/>
    <type id="railway.light_rail" priority="15" numLanes="1" speed="27.78" allow="rail_urban" oneway="1"/>
    <type id="railway.preserved" priority="15" numLanes="1" speed="27.78" allow="rail" oneway="1"/>
    <type id="railway.rail" priority="15" numLanes="1" speed="83.33" allow="rail rail_electric" oneway="1"/>
    <type id="railway.subway" priority="15" numLanes="1" speed="27.78" allow="rail_urban" oneway="1"/>
    <type id="railway.tram" priority="15" numLanes="1" speed="13.89" allow="tram" oneway="1"/>

    <edge id=":1228990859_0" function="internal">
        <lane id=":1228990859_0_0" index="0" disallow="tram rail_urban rail rail_electric ship" speed="11.18" length="4.67" shape="2112.29,1000.26 2113.70,1000.58 2114.36,1001.19 2114.27,1002.08 2113.44,1003.25"/>
    </edge>
    <edge id=":1692433907_0" function="internal">
        <lane id=":1692433907_0_0" index="0" disallow="tram rail_urban rail rail_electric ship" speed="11.18" length="6.76" shape="1029.67,1714.22 1028.11,1707.60"/>
        <lane id=":1692433907_0_1" index="1" disallow="tram rail_urban rail rail_electric ship" speed="11.18" length="6.76" shape="1032.78,1713.44 1031.23,1706.91"/>
    </edge>
    <edge id=":1692433907_2" function="internal">
        <lane id=":1692433907_2_0" index="0" disallow="tram rail_urban rail rail_electric ship" speed="11.18" length="5.51" shape="1032.78,1713.44 1032.60,1711.91 1032.92,1710.67 1033.73,1709.74 1035.03,1709.10"/>
    </edge>
    <edge id=":1692433907_3" function="internal">
        <lane id=":1692433907_3_0" index="0" disallow="tram rail_urban rail rail_electric ship" speed="11.18" length="5.65" shape="1025.81,1712.13 1027.11,1711.45 1027.92,1710.47 1028.25,1709.18 1028.11,1707.60"/>
    </edge>
    <edge id=":1692433907_4" function="internal">
        <lane id=":1692433907_4_0" index="0" disallow="tram rail_urban rail rail_electric ship" speed="11.18" length="9.70" shape="1025.81,1712.13 1035.03,1709.10"/>
    </edge>
    <edge id=":1692433910_0" function="internal">
        <lane id=":1692433910_0_0" index="0" disallow="tram rail_urban rail rail_electric ship" speed="11.18" length="5.12" shape="965.69,1730.59 966.29,1731.88 967.16,1732.62 968.28,1732.82 969.65,1732.47"/>
    </edge>
    <edge id=":1692433910_1" function="internal">
        <lane id=":1692433910_1_0" index="0" disallow="tram rail_urban rail rail_electric ship" speed="11.18" length="6.32" shape="963.72,1734.67 969.65,1732.47"/>
    </edge>
    <edge id=":1692433911_0" function="internal">
        <lane id=":1692433911_0_0" index="0" disallow="tram rail_urban rail rail_electric ship" speed="11.18" length="5.01" shape="903.05,1754.46 904.29,1753.87 905.04,1753.03 905.30,1751.93 905.07,1750.57"/>
    </edge>
    <edge id=":1692433911_1" function="internal">
        <lane id=":1692433911_1_0" index="0" disallow="tram rail_urban rail rail_electric ship" speed="11.18" length="6.22" shape="903.05,1754.46 908.98,1752.57"/>
    </edge>
    <edge id=":1692433914_0" function="internal">
        <lane id=":1692433914_0_0" index="0" disallow="tram rail_urban rail rail_electric ship" speed="11.18" length="4.99" shape="844.55,1771.03 845.19,1772.24 846.06,1772.96 847.17,1773.18 848.51,1772.92"/>
    </edge>
    <edge id=":1692433914_1" function="internal">
        <lane id=":1692433914_1_0" index="0" disallow="tram rail_urban rail rail_electric ship" speed="11.18" length="5.82" shape="843.32,1775.47 844.76,1774.52 845.79,1773.95 846.88,1773.49 848.51,1772.92"/>
    </edge>
    <edge id=":1692433916_0" function="internal">
        <lane id=":1692433916_0_0" index="0" disallow="tram rail_urban rail rail_electric ship" speed="11.18" length="5.09" shape="830.01,1780.53 830.88,1781.64 831.88,1782.18 833.01,1782.14 834.28,1781.53"/>
    </edge>
    <edge id=":1692433916_1" function="internal">
        <lane id=":1692433916_1_0" index="0" disallow="tram rail_urban rail rail_electric ship" speed="11.18" length="6.56" shape="830.01,1780.53 833.26,1786.23"/>
        <lane id=":1692433916_1_1" index="1" disallow="tram rail_urban rail rail_electric ship" speed="11.18" length="6.56" shape="827.23,1782.12 830.48,1787.82"/>
    </edge>
    <edge id=":1692433916_3" function="internal">
        <lane id=":1692433916_3_0" index="0" disallow="tram rail_urban rail rail_electric ship" speed="11.18" length="9.59" shape="826.23,1786.74 834.28,1781.53"/>
    </edge>
    <edge id=":1692433916_4" function="internal">
        <lane id=":1692433916_4_0" index="0" disallow="tram rail_urban rail rail_electric ship" speed="11.18" length="5.05" shape="826.23,1786.74 827.50,1786.18 828.64,1786.17 829.63,1786.72 830.48,1787.82"/>
    </edge>
    <edge id=":1692433918_0" function="internal">
        <lane id=":1692433918_0_0" index="0" disallow="tram rail_urban rail rail_electric ship" speed="11.18" length="5.01" shape="793.73,1803.32 794.64,1804.36 795.66,1804.87 796.79,1804.85 798.04,1804.30"/>
    </edge>
    <edge id=":1692433918_1" function="internal">
        <lane id=":1692433918_1_0" index="0" disallow="tram rail_urban rail rail_electric ship" speed="11.18" length="6.18" shape="792.81,1807.60 798.04,1804.30"/>
    </edge>
    <edge id=":1692433919_0" function="internal">
        <lane id=":1692433919_0_0" index="0" disallow="tram rail_urban rail rail_electric ship" speed="11.18" length="0.30" shape="728.12,1848.95 728.37,1848.79"/>
    </edge>
    <edge id=":1692433928_0" function="internal">
        <lane id=":1692433928_0_0" index="0" disallow="tram rail_urban rail rail_electric ship" speed="11.18" length="0.10" shape="463.91,2017.07 463.91,2017.07"/>
    </edge>
    <edge id=":1692433932_0" function="internal">
        <lane id=":1692433932_0_0" index="0" disallow="tram rail_urban rail rail_electric ship" speed="11.18" length="0.10" shape="402.82,2055.85 402.82,2055.85"/>
    </edge>
    <edge id=":1692433935_0" function="internal">
        <lane id=":1692433935_0_0" index="0" disallow="tram rail_urban rail rail_electric ship" speed="11.18" length="0.30" shape="338.17,2096.87 338.42,2096.71"/>
    </edge>
    <edge id=":1773076509_0" function="internal">
        <lane id=":1773076509_0_0" index="0" disallow="tram rail_urban rail rail_electric ship" speed="11.18" length="6.30" shape="914.66,1225.66 916.41,1231.73"/>
        <lane id=":1773076509_0_1" index="1" disallow="tram rail_urban rail rail_electric ship" speed="11.18" length="6.30" shape="911.59,1226.57 913.33,1232.60"/>
    </edge>
    <edge id=":1773076509_2" function="internal">
        <lane id=":1773076509_2_0" index="0" disallow="tram rail_urban rail rail_electric ship" speed="11.18" length="5.26" shape="909.31,1230.87 910.72,1230.38 911.85,1230.50 912.72,1231.25 913.33,1232.60"/>
    </edge>
    <edge id=":1773076511_0" function="internal">
        <lane id=":1773076511_0_0" index="0" disallow="tram rail_urban rail rail_electric ship" speed="11.18" length="6.73" shape="900.03,1162.90 898.34,1162.85 897.35,1163.58 897.07,1165.07 897.50,1167.32"/>
    </edge>
    <edge id=":1773076511_1" function="internal">
        <lane id=":1773076511_1_0" index="0" disallow="tram rail_urban rail rail_electric ship" speed="11.18" length="11.35" shape="900.03,1162.90 897.12,1162.74 895.18,1163.52 893.28,1164.84 890.50,1166.28"/>
        <lane id=":1773076511_1_1" index="1" disallow="tram rail_urban rail rail_electric ship" speed="11.18" length="11.35" shape="900.69,1159.77 897.24,1159.51 894.92,1160.28 892.64,1161.68 889.35,1163.30"/>
    </edge>
    <edge id=":1773076511_3" function="internal">
        <lane id=":1773076511_3_0" index="0" disallow="tram rail_urban rail rail_electric bicycle pedestrian ship" speed="11.18" length="2.60" shape="900.69,1159.77 899.08,1159.16 898.54,1158.46"/>
    </edge>
    <edge id=":1773076511_11" function="internal">
        <lane id=":1773076511_11_0" index="0" speed="11.18" length="3.58" shape="898.54,1158.46 898.36,1158.21 898.53,1156.91 899.59,1155.27"/>
    </edge>
    <edge id=":1773076511_4" function="internal">
        <lane id=":1773076511_4_0" index="0" disallow="tram rail_urban rail rail_electric bicycle pedestrian ship" speed="11.18" length="6.18" shape="892.85,1152.09 893.66,1153.87 894.64,1154.65 895.79,1154.44 897.12,1153.23"/>
    </edge>
    <edge id=":1773076511_5" function="internal">
        <lane id=":1773076511_5_0" index="0" disallow="tram rail_urban rail rail_electric ship" speed="11.18" length="15.90" shape="892.85,1152.09 897.50,1167.32"/>
        <lane id=":1773076511_5_1" index="1" disallow="tram rail_urban rail rail_electric ship" speed="11.18" length="15.90" shape="889.80,1153.05 894.43,1168.23"/>
    </edge>
    <edge id=":1773076511_7" function="internal">
        <lane id=":1773076511_7_0" index="0" disallow="tram rail_urban rail rail_electric ship" speed="11.18" length="11.02" shape="889.80,1153.05 890.84,1157.06 891.11,1160.10 890.61,1162.18 889.35,1163.30"/>
    </edge>
    <edge id=":1773076511_8" function="internal">
        <lane id=":1773076511_8_0" index="0" disallow="tram rail_urban rail rail_electric bicycle pedestrian ship" speed="11.18" length="11.97" shape="887.05,1157.32 890.28,1156.45 892.69,1156.11 894.80,1155.36 897.12,1153.23"/>
        <lane id=":1773076511_8_1" index="1" disallow="tram rail_urban rail rail_electric bicycle pedestrian ship" speed="11.18" length="11.97" shape="888.20,1160.31 891.87,1159.26 894.59,1158.75 896.95,1157.77 899.59,1155.27"/>
    </edge>
    <edge id=":1773076511_10" function="internal">
        <lane id=":1773076511_10_0" index="0" disallow="tram rail_urban rail rail_electric ship" speed="11.18" length="2.17" shape="888.20,1160.31 889.61,1160.63 890.15,1161.12"/>
    </edge>
    <edge id=":1773076511_12" function="internal">
        <lane id=":1773076511_12_0" index="0" speed="11.18" length="2.50" shape="890.15,1161.12 890.27,1161.23 890.18,1162.12 889.35,1163.30"/>
    </edge>
    <edge id=":1773076513_0" function="internal">
        <lane id=":1773076513_0_0" index="0" disallow="tram rail_urban rail rail_electric ship" speed="11.18" length="4.29" shape="887.36,1140.14 887.68,1141.16 887.96,1141.84 888.37,1142.46 889.05,1143.30"/>
        <lane id=":1773076513_0_1" index="1" disallow="tram rail_urban rail rail_electric ship" speed="11.18" length="4.29" shape="884.29,1141.04 884.72,1142.44 885.11,1143.37 885.67,1144.21 886.59,1145.35"/>
    </edge>
    <edge id=":1773076513_2" function="internal">
        <lane id=":1773076513_2_0" index="0" disallow="tram rail_urban rail rail_electric ship" speed="11.18" length="4.67" shape="884.29,1141.04 883.86,1142.42 883.21,1143.03 882.33,1142.87 881.22,1141.95"/>
    </edge>
    <edge id=":1773076513_3" function="internal">
        <lane id=":1773076513_3_0" index="0" disallow="tram rail_urban rail rail_electric ship" speed="11.18" length="4.38" shape="878.49,1146.53 878.60,1145.43 878.60,1144.67 878.45,1143.92 878.15,1142.86"/>
        <lane id=":1773076513_3_1" index="1" disallow="tram rail_urban rail rail_electric ship" speed="11.18" length="4.38" shape="881.67,1146.90 881.82,1145.42 881.82,1144.39 881.63,1143.38 881.22,1141.95"/>
    </edge>
    <edge id=":1773076513_5" function="internal">
        <lane id=":1773076513_5_0" index="0" disallow="tram rail_urban rail rail_electric ship" speed="11.18" length="8.18" shape="881.67,1146.90 882.26,1144.35 883.28,1143.24 884.72,1143.57 886.59,1145.35"/>
    </edge>
    <edge id=":1773076514_0" function="internal">
        <lane id=":1773076514_0_0" index="0" disallow="tram rail_urban rail rail_electric ship" speed="11.18" length="1.25" shape="890.09,1144.54 890.44,1144.97 890.65,1145.29 890.80,1145.64 890.98,1146.16"/>
        <lane id=":1773076514_0_1" index="1" disallow="tram rail_urban rail rail_electric ship" speed="11.18" length="1.25" shape="887.63,1146.59 887.75,1146.73 887.82,1146.84 887.87,1146.95 887.93,1147.13"/>
    </edge>
    <edge id=":1773076778_0" function="internal">
        <lane id=":1773076778_0_0" index="0" disallow="tram rail_urban rail rail_electric ship" speed="11.18" length="5.75" shape="940.22,1303.86 938.96,1304.59 938.18,1305.61 937.90,1306.94 938.12,1308.57"/>
    </edge>
    <edge id=":1773076778_1" function="internal">
        <lane id=":1773076778_1_0" index="0" disallow="tram rail_urban rail rail_electric ship" speed="11.18" length="9.77" shape="940.22,1303.86 931.11,1307.39"/>
    </edge>
    <edge id=":1773076778_2" function="internal">
        <lane id=":1773076778_2_0" index="0" disallow="tram rail_urban rail rail_electric ship" speed="11.18" length="6.89" shape="936.31,1301.89 938.12,1308.57"/>
        <lane id=":1773076778_2_1" index="1" disallow="tram rail_urban rail rail_electric ship" speed="11.18" length="6.89" shape="933.23,1302.76 935.02,1309.38"/>
    </edge>
    <edge id=":1773078006_0" function="internal">
        <lane id=":1773078006_0_0" index="0" disallow="tram rail_urban rail rail_electric ship" speed="11.18" length="6.21" shape="957.68,1383.91 959.28,1389.89"/>
        <lane id=":1773078006_0_1" index="1" disallow="tram rail_urban rail rail_electric ship" speed="11.18" length="6.21" shape="954.58,1384.72 956.19,1390.73"/>
    </edge>
    <edge id=":1773078006_2" function="internal">
        <lane id=":1773078006_2_0" index="0" disallow="tram rail_urban rail rail_electric ship" speed="11.18" length="5.26" shape="954.58,1384.72 954.70,1386.01 954.35,1387.13 953.52,1388.09 952.22,1388.88"/>
    </edge>
    <edge id=":1773082408_0" function="internal">
        <lane id=":1773082408_0_0" index="0" disallow="tram rail_urban rail rail_electric ship" speed="11.18" length="5.09" shape="971.42,1434.37 971.99,1435.67 972.82,1436.44 973.93,1436.68 975.31,1436.40"/>
    </edge>
    <edge id=":1773082408_1" function="internal">
        <lane id=":1773082408_1_0" index="0" disallow="tram rail_urban rail rail_electric ship" speed="11.18" length="6.45" shape="971.42,1434.37 973.12,1440.60"/>
        <lane id=":1773082408_1_1" index="1" disallow="tram rail_urban rail rail_electric ship" speed="11.18" length="6.45" shape="968.34,1435.22 970.04,1441.44"/>
    </edge>
    <edge id=":1773082408_3" function="internal">
        <lane id=":1773082408_3_0" index="0" disallow="tram rail_urban rail rail_electric ship" speed="11.18" length="9.53" shape="966.23,1439.27 975.31,1436.40"/>
    </edge>
    <edge id=":1773082408_4" function="internal">
        <lane id=":1773082408_4_0" index="0" disallow="tram rail_urban rail rail_electric ship" speed="11.18" length="5.00" shape="966.23,1439.27 967.59,1439.10 968.68,1439.40 969.49,1440.18 970.04,1441.44"/>
    </edge>
    <edge id=":1773082410_0" function="internal">
        <lane id=":1773082410_0_0" index="0" disallow="tram rail_urban rail rail_electric ship" speed="11.18" length="6.37" shape="1019.10,1593.92 1017.52,1594.78 1016.52,1595.90 1016.11,1597.27 1016.27,1598.90"/>
    </edge>
    <edge id=":1773082410_1" function="internal">
        <lane id=":1773082410_1_0" index="0" disallow="tram rail_urban rail rail_electric ship" speed="11.18" length="10.44" shape="1019.10,1593.92 1009.28,1597.67"/>
        <lane id=":1773082410_1_1" index="1" disallow="tram rail_urban rail rail_electric ship" speed="11.18" length="10.44" shape="1017.93,1590.94 1008.17,1594.67"/>
        <lane id=":1773082410_1_2" index="2" disallow="tram rail_urban rail rail_electric ship" speed="11.18" length="10.44" shape="1016.75,1587.96 1007.06,1591.67"/>
    </edge>
    <edge id=":1773082410_4" function="internal">
        <lane id=":1773082410_4_0" index="0" disallow="tram rail_urban rail rail_electric ship" speed="11.18" length="13.33" shape="1012.83,1586.00 1016.27,1598.90"/>
        <lane id=":1773082410_4_1" index="1" disallow="tram rail_urban rail rail_electric ship" speed="11.18" length="13.33" shape="1009.74,1586.85 1013.17,1599.70"/>
    </edge>
    <edge id=":1773082410_6" function="internal">
        <lane id=":1773082410_6_0" index="0" disallow="tram rail_urban rail rail_electric ship" speed="11.18" length="8.74" shape="1009.74,1586.85 1010.32,1589.80 1010.25,1592.09 1009.54,1593.71 1008.17,1594.67"/>
    </edge>
    <edge id=":1773082410_7" function="internal">
        <lane id=":1773082410_7_0" index="0" disallow="tram rail_urban rail rail_electric ship" speed="11.18" length="6.18" shape="1009.74,1586.85 1009.93,1588.45 1009.55,1589.79 1008.59,1590.86 1007.06,1591.67"/>
    </edge>
    <edge id=":1773084391_0" function="internal">
        <lane id=":1773084391_0_0" index="0" disallow="tram rail_urban rail rail_electric ship" speed="11.18" length="6.21" shape="1043.55,1703.43 1045.13,1709.44"/>
        <lane id=":1773084391_0_1" index="1" disallow="tram rail_urban rail rail_electric ship" speed="11.18" length="6.21" shape="1040.46,1704.24 1042.03,1710.25"/>
    </edge>
    <edge id=":1773084391_2" function="internal">
        <lane id=":1773084391_2_0" index="0" disallow="tram rail_urban rail rail_electric ship" speed="11.18" length="5.06" shape="1038.20,1708.12 1039.58,1707.90 1040.67,1708.18 1041.49,1708.96 1042.03,1710.25"/>
    </edge>
    <edge id=":1773084402_0" function="internal">
        <lane id=":1773084402_0_0" index="0" disallow="tram rail_urban rail rail_electric ship" speed="11.18" length="5.07" shape="1086.93,1918.43 1087.96,1917.56 1088.48,1916.54 1088.48,1915.37 1087.97,1914.05"/>
    </edge>
    <edge id=":1773084402_1" function="internal">
        <lane id=":1773084402_1_0" index="0" disallow="tram rail_urban rail rail_electric ship" speed="11.18" length="7.73" shape="1086.93,1918.43 1089.16,1916.84 1090.54,1915.32 1091.08,1913.88 1090.78,1912.52"/>
    </edge>
    <edge id=":1773084402_2" function="internal">
        <lane id=":1773084402_2_0" index="0" disallow="tram rail_urban rail rail_electric ship" speed="11.18" length="9.32" shape="1086.93,1918.43 1094.99,1913.74"/>
    </edge>
    <edge id=":1773084405_0" function="internal">
        <lane id=":1773084405_0_0" index="0" disallow="tram rail_urban rail rail_electric ship" speed="11.18" length="0.10" shape="1076.76,1834.61 1076.76,1834.61"/>
    </edge>
    <edge id=":1773084407_0" function="internal">
        <lane id=":1773084407_0_0" index="0" disallow="tram rail_urban rail rail_electric ship" speed="11.18" length="8.39" shape="1052.01,1748.52 1052.85,1750.09 1054.31,1750.78 1056.39,1750.59 1059.09,1749.52"/>
    </edge>
    <edge id=":1773084410_0" function="internal">
        <lane id=":1773084410_0_0" index="0" disallow="tram rail_urban rail rail_electric ship" speed="11.18" length="6.15" shape="1037.48,1667.04 1036.18,1667.97 1035.38,1669.15 1035.09,1670.57 1035.31,1672.24"/>
    </edge>
    <edge id=":1773084410_1" function="internal">
        <lane id=":1773084410_1_0" index="0" disallow="tram rail_urban rail rail_electric ship" speed="11.18" length="9.97" shape="1037.48,1667.04 1034.85,1668.39 1033.02,1669.26 1031.13,1670.01 1028.35,1671.00"/>
    </edge>
    <edge id=":1773084410_2" function="internal">
        <lane id=":1773084410_2_0" index="0" disallow="tram rail_urban rail rail_electric ship" speed="11.18" length="7.22" shape="1033.49,1665.26 1035.31,1672.24"/>
        <lane id=":1773084410_2_1" index="1" disallow="tram rail_urban rail rail_electric ship" speed="11.18" length="7.22" shape="1030.39,1666.06 1032.22,1673.05"/>
    </edge>
    <edge id=":1773084410_4" function="internal">
        <lane id=":1773084410_4_0" index="0" disallow="tram rail_urban rail rail_electric ship" speed="11.18" length="5.97" shape="1030.39,1666.06 1030.64,1667.82 1030.38,1669.23 1029.62,1670.29 1028.35,1671.00"/>
    </edge>
    <edge id=":1775267750_0" function="internal">
        <lane id=":1775267750_0_0" index="0" disallow="tram rail_urban rail rail_electric ship" speed="11.18" length="9.71" shape="1339.05,1469.82 1329.72,1473.14"/>
        <lane id=":1775267750_0_1" index="1" disallow="tram rail_urban rail rail_electric ship" speed="11.18" length="9.71" shape="1337.88,1466.84 1328.73,1470.10"/>
        <lane id=":1775267750_0_2" index="2" disallow="tram rail_urban rail rail_electric ship" speed="11.18" length="9.71" shape="1336.71,1463.87 1327.75,1467.05"/>
    </edge>
    <edge id=":1775267750_3" function="internal">
        <lane id=":1775267750_3_0" index="0" disallow="tram rail_urban rail rail_electric ship" speed="11.18" length="7.95" shape="1336.71,1463.87 1334.08,1464.67 1332.01,1464.81 1330.51,1464.27 1329.57,1463.06"/>
    </edge>
    <edge id=":1775267750_4" function="internal">
        <lane id=":1775267750_4_0" index="0" disallow="tram rail_urban rail rail_electric ship" speed="11.18" length="5.29" shape="1336.71,1463.87 1335.38,1464.16 1334.24,1463.91 1333.28,1463.13 1332.52,1461.81"/>
    </edge>
    <edge id=":1918039864_0" function="internal">
        <lane id=":1918039864_0_0" index="0" disallow="tram rail_urban rail rail_electric ship" speed="11.18" length="15.96" shape="998.36,1590.86 994.29,1575.42"/>
        <lane id=":1918039864_0_1" index="1" disallow="tram rail_urban rail rail_electric ship" speed="11.18" length="15.96" shape="1001.45,1590.05 997.39,1574.61"/>
    </edge>
    <edge id=":1918039864_2" function="internal">
        <lane id=":1918039864_2_0" index="0" disallow="tram rail_urban rail rail_electric ship" speed="11.18" length="10.87" shape="1001.45,1590.05 1000.70,1586.25 1000.67,1583.31 1001.36,1581.23 1002.78,1580.02"/>
    </edge>
    <edge id=":1918039864_3" function="internal">
        <lane id=":1918039864_3_0" index="0" disallow="tram rail_urban rail rail_electric ship" speed="11.18" length="8.34" shape="1001.45,1590.05 1001.09,1587.60 1001.40,1585.61 1002.40,1584.05 1004.07,1582.94"/>
    </edge>
    <edge id=":1918039864_4" function="internal">
        <lane id=":1918039864_4_0" index="0" disallow="tram rail_urban rail rail_electric ship" speed="19.48" length="6.61" shape="990.53,1580.18 992.45,1579.14 993.72,1578.00 994.33,1576.76 994.29,1575.42"/>
    </edge>
    <edge id=":1918039864_5" function="internal">
        <lane id=":1918039864_5_0" index="0" disallow="tram rail_urban rail rail_electric ship" speed="19.48" length="11.42" shape="990.53,1580.18 993.70,1579.05 996.01,1578.63 998.31,1578.22 1001.49,1577.09"/>
        <lane id=":1918039864_5_1" index="1" disallow="tram rail_urban rail rail_electric ship" speed="19.48" length="11.42" shape="991.82,1583.11 995.00,1581.98 997.30,1581.56 999.60,1581.14 1002.78,1580.02"/>
        <lane id=":1918039864_5_2" index="2" disallow="tram rail_urban rail rail_electric ship" speed="19.48" length="11.42" shape="993.11,1586.03 996.29,1584.90 998.59,1584.49 1000.89,1584.07 1004.07,1582.94"/>
    </edge>
    <edge id=":1918039869_0" function="internal">
        <lane id=":1918039869_0_0" index="0" disallow="tram rail_urban rail rail_electric ship" speed="11.18" length="5.08" shape="804.25,1660.80 804.92,1662.04 805.81,1662.73 806.94,1662.89 808.29,1662.51"/>
    </edge>
    <edge id=":1918039869_1" function="internal">
        <lane id=":1918039869_1_0" index="0" disallow="tram rail_urban rail rail_electric ship" speed="11.18" length="12.78" shape="804.25,1660.80 808.84,1672.73"/>
    </edge>
    <edge id=":1918039869_2" function="internal">
        <lane id=":1918039869_2_0" index="0" disallow="tram rail_urban rail rail_electric ship" speed="11.18" length="6.71" shape="802.16,1665.24 808.29,1662.51"/>
        <lane id=":1918039869_2_1" index="1" disallow="tram rail_urban rail rail_electric ship" speed="11.18" length="6.71" shape="803.47,1668.16 809.59,1665.43"/>
        <lane id=":1918039869_2_2" index="2" disallow="tram rail_urban rail rail_electric ship" speed="11.18" length="6.71" shape="804.77,1671.08 810.89,1668.35"/>
    </edge>
    <edge id=":1918039869_5" function="internal">
        <lane id=":1918039869_5_0" index="0" disallow="tram rail_urban rail rail_electric ship" speed="11.18" length="5.05" shape="804.77,1671.08 806.11,1670.70 807.23,1670.85 808.14,1671.53 808.84,1672.73"/>
    </edge>
    <edge id=":1918039876_0" function="internal">
        <lane id=":1918039876_0_0" index="0" disallow="tram rail_urban rail rail_electric ship" speed="11.18" length="5.02" shape="1271.94,1469.81 1272.61,1471.02 1273.50,1471.72 1274.61,1471.90 1275.95,1471.58"/>
    </edge>
    <edge id=":1918039876_1" function="internal">
        <lane id=":1918039876_1_0" index="0" disallow="tram rail_urban rail rail_electric ship" speed="11.18" length="6.24" shape="1270.18,1473.86 1275.95,1471.58"/>
        <lane id=":1918039876_1_1" index="1" disallow="tram rail_urban rail rail_electric ship" speed="11.18" length="6.24" shape="1271.34,1476.84 1277.14,1474.55"/>
        <lane id=":1918039876_1_2" index="2" disallow="tram rail_urban rail rail_electric ship" speed="11.18" length="6.24" shape="1272.51,1479.82 1278.33,1477.52"/>
    </edge>
    <edge id=":1918039877_0" function="internal">
        <lane id=":1918039877_0_0" index="0" disallow="tram rail_urban rail rail_electric ship" speed="11.18" length="12.91" shape="1133.70,1536.48 1132.72,1532.82 1132.01,1530.32 1131.19,1527.86 1129.91,1524.30"/>
        <lane id=":1918039877_0_1" index="1" disallow="tram rail_urban rail rail_electric ship" speed="11.18" length="12.91" shape="1136.79,1535.66 1135.79,1531.91 1135.06,1529.37 1134.23,1526.85 1132.92,1523.20"/>
    </edge>
    <edge id=":1918039877_2" function="internal">