<?xml version="1.0" encoding="UTF-8"?>

<!-- generated on 06/17/18 23:45:15 by Eclipse SUMO duarouter Version v0_32_0+1428-4ab3f27cbd
<configuration xmlns:xsi="http://www.w3.org/2001/XMLSchema-instance" xsi:noNamespaceSchemaLocation="http://sumo.dlr.de/xsd/duarouterConfiguration.xsd">

    <input>
        <net-file value="./New_York/New_York.net.xml"/>
        <route-files value="./New_York/trips.trips.xml"/>
    </input>

    <output>
        <output-file value="./New_York/routes.rou.xml"/>
        <alternatives-output value="./New_York/routes.rou.alt.xml"/>
    </output>

    <processing>
        <ignore-errors value="true"/>
    </processing>

    <time>
        <begin value="0"/>
        <end value="500"/>
    </time>

    <report>
        <no-warnings value="true"/>
        <no-step-log value="true"/>
    </report>

</configuration>
-->

<routes xmlns:xsi="http://www.w3.org/2001/XMLSchema-instance" xsi:noNamespaceSchemaLocation="http://sumo.dlr.de/xsd/routes_file.xsd">
    <vehicle id="0" depart="0.00">
        <route edges="5670366#0 5670366#1 5670366#2 5670366#3 5670366#4 5670366#5 5670366#6 5670366#7 5670366#8 5670366#9 5670366#10 5670366#11 5670366#12 524387551#2 420358898#1 420358898#2"/>
    </vehicle>
    <vehicle id="1" depart="1.00">
        <route edges="496990211 46201677#0 46201677#1 110854073#3 110854073#4 110854073#5 110854073#6 110854073#7 110854073#8 492148701#3 492148701#4 492148701#5"/>
    </vehicle>
    <vehicle id="2" depart="2.00">
        <route edges="40709928#0 40709928#1 40709928#2 40709928#3 40709928#4 40709928#5 40709928#6 5670076 127691872#8 457937084#2 420352240 195743177 181546839#0 181546839#1 474054794#0 474054794#1 474054794#2 474054794#3 195745917#0 195745917#1 420351718 420351723#0 420351723#1 420351722#0 420351722#1 420351720#0 420351720#1 199927850#0 199927850#1 456313638#0 456313638#1 433442263 385102416"/>
    </vehicle>
    <vehicle id="3" depart="3.00">
        <route edges="-5672621#21 -5672621#20 -5672621#19 -5672621#18 -5672621#17 -5672621#16 -5672621#15 -5672621#14 -5672621#13 -5672621#12 -5672621#11 -5672621#10 -5672621#9 -5672621#8 -5672621#7 -5672621#6 -5672621#5 -5672621#4 -5672621#3 -5672621#2 -5672621#1 -5672621#0 199927849#0 199927849#1 420351724#0 420351724#1 420351721#0 420351721#1 195745916#0 195745916#1 68325065#0 68325065#1 68325065#2 68325065#3 68325065#4 68325065#5 420352242 496999242 452319507#0 452319507#1 452319507#2 497769953 497769952 5673047 588293370#0 588293370#1 524387551#0 524387551#1 524387551#2 524387551#3 524388532 420352244 420352249"/>
    </vehicle>
    <vehicle id="4" depart="4.00">
        <route edges="-5672621#21 -5672621#20 -5672621#19 -5672621#18 -5672621#17 -5672621#16 -5672621#15 -5672621#14 -5672621#13 -5672621#12 -5672621#11 -5672621#10 -5672621#9 -5672621#8 -5672621#7 -5672621#6 -5672621#5 -5672621#4 -5672621#3 -5672621#2 -5672621#1 -5672621#0 199927849#0 199927849#1 420351724#0 420351724#1 420351721#0 420351721#1 195745916#0 195745916#1 68325065#0 68325065#1 68325065#2 68325065#3 68325065#4 68325065#5 420352242 496999242 5670654 195743130#0 195743130#1 195743130#2 221687794 524395517#0 524395517#1 524395517#2 524395517#3 420354140#0 420354140#1 457937087 420354141 420354147 420354142 5669892#0 5669892#1 5669892#2 5669892#3 5669892#4 5669892#5 5669892#6 46139038#0 46139038#1 46139038#2 46139038#3 5670820#1 5670820#2 5670820#3"/>
    </vehicle>
    <vehicle id="5" depart="5.00">
        <route edges="46582968#0 46582968#1 46582968#2 -5672621#7 -5672621#6 -5672621#5 -5672621#4 -5672621#3 -5672621#2 -5672621#1 -5672621#0 199927849#0 199927849#1 420351724#0 420351724#1 420351721#0 420351721#1 195745916#0 195745916#1 68325065#0 68325065#1 68325065#2 68325065#3 68325065#4 68325065#5 420352242 496999242 452319507#0 452319507#1 452319507#2 497769953 497769952 5673047 588293370#0 588293370#1 524387551#0 524387551#1 524387551#2 524387551#3 524388532 420352244 584850105#0 584850105#1 5673316#11 5673316#12 5673316#13"/>
    </vehicle>
    <vehicle id="6" depart="6.00">
        <route edges="479642043#0 -5672621#2 -5672621#1 -5672621#0 199927849#0 199927849#1 420351724#0 420351724#1 420351721#0 420351721#1 195745916#0 195745916#1 68325065#0 68325065#1 68325065#2 68325065#3 68325065#4 68325065#5 420352242 496999242 5670654 195743130#0 195743130#1 195743130#2 221687794 524395517#0 524395517#1 524395517#2 524395517#3 420354140#0 420354140#1 457937087 420354141 420354147 420354142 5669892#0 5669892#1 5669892#2 5669892#3 5669892#4 5669892#5 5669892#6 46139038#0 46139038#1 46139038#2 46139038#3 46139038#4"/>
    </vehicle>
    <vehicle id="7" depart="7.00">
        <route edges="439842836#0 439842836#1 439842836#2 439842836#3 439842835#0 439842835#1 5673210#3 5673210#4 5673210#5 420352246#1 420352243 181375404#0 181375404#1 181375404#2 181375404#3 420352241 420352245 524387550 195743178 457937084#0 457937084#1 457937084#2 420352240 195743177 181546839#0 181546839#1 474054794#0 474054794#1 474054794#2 474054794#3 195745917#0 195745917#1 420351718 420351723#0 420351723#1 420351722#0 420351722#1 420351720#0 420351720#1 524382712 5672621#0 5672621#1 5672621#2 5672621#3 5672621#4 5672621#5 5672621#6 5672621#7 5672621#8 5672621#9 5672621#10 5672621#11 5672621#12 5672621#13 5672621#14 5672621#15 5672621#16 5672621#17 5672621#18 5672621#19 5672621#20 5672621#21"/>
    </vehicle>
    <vehicle id="8" depart="8.00">
        <route edges="25163419#0 25163419#1 -5672621#1 -5672621#0 -524382712 199927850#0 199927850#1 456313638#0 456313638#1 5670633#0 5670633#1 5670633#2 5670633#3 5670633#4"/>
    </vehicle>
    <vehicle id="9" depart="9.00">
        <route edges="439842836#0 439842836#1 439842836#2 439842836#3 439842835#0 439842835#1 439842835#2 194923786#0 194923786#1 194923786#2 194923786#3 112116234#1 420355078 -420354142 421827963 421827957 421827959 485165667#0 485165667#1 485165667#2 5669857 421827958 221687793 451954060 446864088 421827961 446864091#1 446864091#2"/>
    </vehicle>
    <vehicle id="10" depart="10.00">
        <route edges="5671339#0 -165777195#2 439842831#4 454031476#0 454031476#1 454031476#2 421827959 485165667#0 485165667#1 485165667#2 5669857 421827958 46139048#0 46139048#1 46139048#2 46139048#3 46139048#4 46139048#5"/>
    </vehicle>
    <vehicle id="11" depart="11.00">
        <route edges="25163419#0 25163419#1 -5672621#1 -5672621#0 199927849#0 199927849#1 420351724#0 420351724#1 420351721#0 420351721#1 195745916#0 195745916#1 68325065#0 68325065#1 68325065#2 68325065#3 68325065#4 68325065#5 420352242 496999242 5670654 195743130#0 195743130#1 195743130#2 221687794 524395517#0 524395517#1 524395517#2 524395517#3 420354140#0 420354140#1 457937087 420354141 420354147 420354142 420355077 165777195#0 165777195#1 165777195#2 5671339#1 5671339#2 5670092#11 5670092#12 5670092#13"/>
    </vehicle>
    <vehicle id="12" depart="12.00">
        <route edges="25196678 362811088#0 362811088#1 374923972 456313635 421825695#0 421825695#1 199927849#0 199927849#1 420351724#0 420351724#1 420351721#0 420351721#1 195745916#0 195745916#1 195743554#0 195743554#1 195743554#2 195743554#3 195743554#4 195743554#5 195743554#6 195743554#7 195743554#8 195743554#9 195743554#10 195743554#11"/>
    </vehicle>
    <vehicle id="13" depart="13.00">
        <route edges="479642043#0 -5672621#2 -5672621#1 -5672621#0 199927849#0 199927849#1 420351724#0 420351724#1 420351721#0 420351721#1 195745916#0 195745916#1 68325065#0 68325065#1 68325065#2 68325065#3 68325065#4 68325065#5 420352242 496999242 5670654 195743130#0 195743130#1 195743130#2 221687794 524395517#0 524395517#1 524395517#2 524395517#3 420354140#0 420354140#1 457937087 -46139043 -454031476#2 -454031476#1 -454031476#0"/>
    </vehicle>
    <vehicle id="14" depart="14.00">
        <route edges="5672899#0 5672899#1 446864089 488272734 221687791 451954055 485165666 524395517#0 524395517#1 524395517#2 524395517#3 420354140#0 420354140#1 457937087 420354141 420354147 420354142 5669892#0 5669892#1 5669892#2 5669892#3 5669892#4 5669892#5 5669892#6 46139038#0 46139038#1 46348767#0 46348767#1 46348767#2 351540632#2"/>
    </vehicle>
    <vehicle id="15" depart="15.00">
        <route edges="46582968#0 46582968#1 46582968#2 -5672621#7 -5672621#6 -5672621#5 -5672621#4 -5672621#3 -5672621#2 -5672621#1 -5672621#0 -524382712 199927850#0 199927850#1 456313638#0 456313638#1 433442263 385102416"/>
    </vehicle>
    <vehicle id="16" depart="16.00">
        <route edges="5671400 112116235#0 112116235#1 112116235#2 112116235#3 112116235#4 112116235#5 112116235#6 221687789 221687794 524395517#0 524395517#1 524395517#2 524395517#3 420354140#0 420354140#1 457937087 454963832#0 454963832#1 40709918#0 40709918#1 165777255 5673316#0 5673316#1 5673316#2 5673316#3 5673316#4 5673316#5 5673316#6 5673316#7 5673316#8 5673316#9 5673316#10 5673316#11 5673316#12 5673316#13"/>
    </vehicle>
    <vehicle id="17" depart="17.00">
        <route edges="25163419#0 25163419#1 -5672621#1 -5672621#0 -524382712 199927850#0 199927850#1 456313638#0 456313638#1 5670633#0 5670633#1 110854073#7 110854073#8 492148701#3 492148701#4 492148701#5"/>
    </vehicle>
    <vehicle id="18" depart="18.00">
        <route edges="496980200 420352246#0 420352246#1 420352243 181375404#0 181375404#1 181375404#2 181375404#3 420352241 420352245 524387550 195743178 457937084#0 457937084#1 457937084#2 420352240 195743177 181546839#0 181546839#1 474054794#0 474054794#1 474054794#2 474054794#3 195745917#0 195745917#1 420351718 420351723#0 420351723#1 420351722#0 420351722#1 420351720#0 420351720#1 524382712 5672621#0 5672621#1 5672621#2 5672621#3 5672621#4 5672621#5 46608205#3 46608205#4 46608205#5"/>
    </vehicle>
    <vehicle id="19" depart="19.00">
        <route edges="5672871#0 5672871#1 5672871#2 439842836#1 439842836#2 439842836#3 439842835#0 439842835#1 5673210#3 5673210#4 5673210#5 420352246#1 420352243 181375404#0 181375404#1 181375404#2 181375404#3 420352241 420352245 524387550 195743178 457937084#0 457937084#1 457937084#2 420352240 195743177 181546839#0 181546839#1 474054794#0 474054794#1 474054794#2 474054794#3 195745917#0 195745917#1 420351718 420351723#0 420351723#1 420351722#0 420351722#1 420351720#0 420351720#1 199927850#0 199927850#1 456313638#0 456313638#1 5670633#0 5670633#1 110854073#7 110854073#8 46350695"/>
    </vehicle>
    <vehicle id="20" depart="20.00">
        <route edges="524394634#0 524394634#1 524394634#2 524394634#3 524394634#4 46139047 221687790 221687792#0 496986998 110854073#0 110854073#1 46201668#2 46201668#3 195745917#0 195745917#1 420351718 420351723#0 420351723#1 420351722#0 420351722#1 420351720#0 420351720#1 524382712 5672621#0 5672621#1 5672621#2 5672621#3 5672621#4 5672621#5 46608205#3 46608205#4 46608205#5"/>
    </vehicle>
    <vehicle id="21" depart="21.00">
        <route edges="127691872#0 127691872#1 127691872#2 421827958 221687793 451954060 446864088 421827961 421827960 421827962 -194923768#2 194923768#2 231393430 421826773 46201668#0 46201668#1 110854073#2 110854073#3 110854073#4 110854073#5 110854073#6 110854073#7 110854073#8 492148701#3 492148701#4 492148701#5"/>
    </vehicle>
    <vehicle id="22" depart="22.00">
        <route edges="194923768#0 194923768#1 194923768#2 231393430 421826773 46201668#0 46201668#1 46201668#2 46201668#3 195745917#0 195745917#1 420351718 420351723#0 420351723#1 420351722#0 420351722#1 420351720#0 420351720#1 524382712 5672621#0 5672621#1 5672621#2 5672621#3 5672621#4 5672621#5 46608205#3 46608205#4 46608205#5"/>
    </vehicle>
    <vehicle id="23" depart="23.00">
        <route edges="157012386#0 157012386#1 157012386#2 157012386#3 157012386#4 157012386#5 157012386#6 157012386#7 157012386#8 5670092#0 5670092#1 181375404#2 181375404#3 420352241 40709921#1 40709921#2 112116236 112116234#0 112116234#1 420355078 420355077 165777195#0 165777195#1 165777195#2 165777195#3"/>
    </vehicle>
    <vehicle id="24" depart="24.00">
        <route edges="496980201 351540632#0 439842836#2 439842836#3 439842835#0 439842835#1 5673210#3 5673210#4 5673210#5 420352246#1 420352243 181375404#0 181375404#1 181375404#2 181375404#3 420352241 420352245 524387550 195743178 457937084#0 457937084#1 457937084#2 420352240 195743177 181546839#0 181546839#1 474054794#0 474054794#1 474054794#2 474054794#3 195745917#0 195745917#1 420351718 420351723#0 420351723#1 420351722#0 420351722#1 420351720#0 420351720#1 524382712 5672621#0 5672621#1 5672621#2 5672621#3 5672621#4 5672621#5 5672621#6 5672621#7 5672621#8 5672621#9 5672621#10 5672621#11 5672621#12 5672621#13 5672621#14 5672621#15 5672621#16 5672621#17 5672621#18 5672621#19 5672621#20 5672621#21"/>
    </vehicle>
    <vehicle id="25" depart="25.00">
        <route edges="496980201 351540632#0 439842836#2 439842836#3 439842835#0 439842835#1 439842835#2 194923786#0 194923786#1 194923786#2 194923786#3 112116234#1 420355078 -420354142 421827963 421827957 421827959 485165667#0 485165667#1 485165667#2 5669857 421827958 221687793 451954060 446864088 421827961 421827960 421827962 231393429"/>
    </vehicle>
    <vehicle id="26" depart="26.00">
        <route edges="127691872#0 127691872#1 127691872#2 127691872#3 524395517#1 524395517#2 524395517#3 420354140#0 420354140#1 457937087 420354141 420354147 420354142 5669892#0 5669892#1 5670092#8 5670084#2 5670084#3 5670773 5672409#0 5672409#1 5672409#2"/>
    </vehicle>
    <vehicle id="27" depart="27.00">
        <route edges="492148701#0 5670532#0 5670532#1 5670532#2 112116235#0 112116235#1 112116235#2 112116235#3 -46201668#0 -421826773 -231393430 -194923768#2 194923768#2 231393429"/>
    </vehicle>
    <vehicle id="28" depart="28.00">
        <route edges="194923768#0 194923768#1 194923768#2 231393430 421826773 46201668#0 46201668#1 46201668#2 46201668#3 195745917#0 195745917#1 420351718 420351723#0 420351723#1 420351722#0 420351722#1 420351720#0 420351720#1 524382712 5672621#0 5672621#1 5672621#2 5672621#3 5672621#4 5672621#5 46608205#3 46608205#4 46608205#5"/>
    </vehicle>
    <vehicle id="29" depart="29.00">
        <route edges="496990211 46201677#0 112116235#3 112116235#4 5670922#4 446864091#0 446864091#1 446864091#2"/>
    </vehicle>
    <vehicle id="30" depart="30.00">
        <route edges="496980201 351540632#0 439842836#2 439842836#3 439842835#0 439842835#1 5673210#3 5673210#4 5673210#5 420352246#1 420352243 181375404#0 181375404#1 181375404#2 181375404#3 420352241 420352245 524387550 195743178 457937084#0 457937084#1 457937084#2 420352240 195743177 181546839#0 181546839#1 474054794#0 474054794#1 474054794#2 474054794#3 -456315007 195743554#0 195743554#1 195743554#2 195743554#3 195743554#4 195743554#5 195743554#6 195743554#7 195743554#8 195743554#9 195743554#10 195743554#11"/>
    </vehicle>
    <vehicle id="31" depart="31.00">
        <route edges="492148701#0 5670532#0 5670532#1 5670532#2 112116235#0 112116235#1 112116235#2 112116235#3 112116235#4 112116235#5 112116235#6 221687789 221687794 524395517#0 524395517#1 524395517#2 524395517#3 420354140#0 420354140#1 457937087 420354141 420354147 420354142 5669892#0 5669892#1 5669892#2 5669892#3 5669892#4 5669892#5 5669892#6 46139038#0 46139038#1 46348767#0 46348767#1 46348767#2 46348767#3 46348767#4 46348767#5"/>
    </vehicle>
    <vehicle id="32" depart="32.00">
        <route edges="5672871#0 5672871#1 5672871#2 439842836#1 439842836#2 439842836#3 439842835#0 439842835#1 5673210#3 5673210#4 5673210#5 420352246#1 420352243 420358898#0 524387551#3 524388532 420352244 420352249"/>
    </vehicle>
    <vehicle id="33" depart="33.00">
        <route edges="127691872#0 127691872#1 127691872#2 127691872#3 524395517#1 524395517#2 524395517#3 420354140#0 420354140#1 457937087 454963832#0 454963832#1 40709918#0 40709918#1 165777255 5673316#0 5673316#1 5673316#2 5673316#3 5673316#4 5673316#5 5673316#6 5673316#7 5673316#8 5673316#9 5673316#10 5673316#11 5673316#12 5673316#13"/>
    </vehicle>
    <vehicle id="34" depart="34.00">
        <route edges="5672899#0 5672899#1 446864089 496988369 384898122#0 384898122#1 496986997 496986996#0 496986996#1 474054794#0 474054794#1 474054794#2 474054794#3 195745917#0 195745917#1 420351718 420351723#0 420351723#1 420351722#0 420351722#1 420351720#0 420351720#1 199927850#0 199927850#1 456313638#0 456313638#1 433442263 385102416"/>
    </vehicle>
    <vehicle id="35" depart="35.00">
        <route edges="5672871#0 5672871#1 5672871#2 439842836#1 439842836#2 439842836#3 439842835#0 439842835#1 5673210#3 5673210#4 5673210#5 420352246#1 420352243 181375404#0 181375404#1 181375404#2 181375404#3 420352241 420352245 524387550 195743178 457937084#0 457937084#1 457937084#2 420352240 195743177 181546839#0 181546839#1 474054794#0 474054794#1 474054794#2 474054794#3 195745917#0 195745917#1 420351718 420351723#0 420351723#1 420351722#0 420351722#1 420351720#0 420351720#1 199927850#0 199927850#1 456313638#0 456313638#1 5670633#0 5670633#1 110854073#7 110854073#8 46350695"/>
    </vehicle>
    <vehicle id="36" depart="36.00">
        <route edges="-195743554#11 -195743554#10 -195743554#9 -195743554#8 -195743554#7 -195743554#6 -195743554#5 -195743554#4 -195743554#3 -195743554#2 -195743554#1 -195743554#0 68325065#0 68325065#1 68325065#2 68325065#3 68325065#4 68325065#5 420352242 496999242 452319507#0 452319507#1 452319507#2 497769953 497769952 5673047 588293370#0 588293370#1 524387551#0 524387551#1 524387551#2 524387551#3 524388532 420352244 584850105#0 584850105#1 584850105#2 584850105#3 584850105#4 584850105#5 46348767#2 351540632#2"/>
    </vehicle>
    <vehicle id="37" depart="37.00">
        <route edges="157012386#0 157012386#1 157012386#2 157012386#3 157012386#4 157012386#5 157012386#6 157012386#7 157012386#8 5670092#0 5670092#1 181375404#2 181375404#3 420352241 420352245 524387550 195743178 457937084#0 457937084#1 457937084#2 420352240 195743177 181546839#0 181546839#1 474054794#0 474054794#1 474054794#2 474054794#3 195745917#0 195745917#1 420351718 420351723#0 420351723#1 420351722#0 420351722#1 420351720#0 420351720#1 199927850#0 199927850#1 456313638#0 456313638#1 5670633#0 5670633#1 110854073#7 110854073#8 46350695"/>
    </vehicle>
    <vehicle id="38" depart="38.00">
        <route edges="492148701#0 5670532#0 5670532#1 5670532#2 112116235#0 112116235#1 112116235#2 112116235#3 112116235#4 112116235#5 112116235#6 221687789 221687794 524395517#0 524395517#1 524395517#2 524395517#3 420354140#0 420354140#1 457937087 454963832#0 454963832#1 40709918#0 40709918#1 165777255 5673316#0 5673316#1 5673316#2 5673316#3 5673316#4 5673316#5 5673316#6 5673316#7 5673316#8 5673316#9 5673316#10 5673316#11 5673316#12 5673316#13"/>
    </vehicle>
    <vehicle id="39" depart="39.00">
        <route edges="5670366#0 5670366#1 5670366#2 5670366#3 439842831#1 439842831#2 439842831#3 439842831#4 454031476#0 454031476#1 454031476#2 421827959 485165667#0 485165667#1 485165667#2 40709928#3 40709928#4 40709928#5 40709928#6 5670076 127691872#8 457937084#2 420352240 195743177 181546839#0 181546839#1 474054794#0 474054794#1 474054794#2 474054794#3 195745917#0 195745917#1 420351718 420351723#0 420351723#1 420351722#0 420351722#1 420351720#0 420351720#1 524382712 5672621#0 5672621#1 5672621#2 5672621#3 479642042#3 479642042#4"/>
    </vehicle>
    <vehicle id="40" depart="40.00">
        <route edges="420351725 420351719 421825696#0 421825696#1 456313635 421825695#0 421825695#1 199927849#0 199927849#1 420351724#0 420351724#1 25198451#0 25198451#1 25198451#2 110854073#4 110854073#5 -25196678"/>
    </vehicle>
    <vehicle id="41" depart="41.00">
        <route edges="420351725 420351719 421825696#0 421825696#1 456313635 421825695#0 421825695#1 199927849#0 199927849#1 420351724#0 420351724#1 420351721#0 420351721#1 195745916#0 195745916#1 68325065#0 68325065#1 68325065#2 68325065#3 68325065#4 68325065#5 420352242 496999242 452319507#0 452319507#1 452319507#2 497769953 497769952 5673047 588293370#0 588293370#1 524387551#0 524387551#1 524387551#2 420358898#1 420358898#2"/>
    </vehicle>
    <vehicle id="42" depart="42.00">
        <route edges="479642043#0 5672621#3 5672621#4 5672187 195743554#5 195743554#6 195743554#7 195743554#8 195743554#9 195743554#10 195743554#11"/>
    </vehicle>
    <vehicle id="43" depart="43.00">
        <route edges="439842836#0 439842836#1 439842836#2 439842836#3 439842835#0 439842835#1 5673210#3 5673210#4 5673210#5 420352246#1 420352243 420358898#0 420358898#1 420358898#2"/>
    </vehicle>
    <vehicle id="44" depart="44.00">
        <route edges="5670366#0 5670366#1 5670366#2 5670366#3 439842831#1 439842831#2 439842831#3 165777195#2 165777195#3"/>
    </vehicle>
    <vehicle id="45" depart="45.00">
        <route edges="-165777195#3 -165777195#2 439842831#4 454031476#0 -454031476#0"/>
    </vehicle>
    <vehicle id="47" depart="47.00">
        <route edges="46582968#0 46582968#1 46582968#2 -5672621#7 -5672621#6 -5672621#5 -5672621#4 -5672621#3 -5672621#2 -5672621#1 -5672621#0 199927849#0 199927849#1 420351724#0 420351724#1 420351721#0 420351721#1 195745916#0 195745916#1 68325065#0 68325065#1 68325065#2 68325065#3 68325065#4 68325065#5 420352242 496999242 5670654 195743130#0 195743130#1 195743130#2 221687794 524395517#0 524395517#1 524395517#2 524395517#3 420354140#0 420354140#1 457937087 420354141 420354147 420354142 5669892#0 5669892#1 5669892#2 5669892#3 5669892#4 5669892#5 5669892#6 46139038#0 46139038#1 46139038#2 46139038#3 5670820#1 5670820#2 5670820#3"/>
    </vehicle>
    <vehicle id="48" depart="48.00">
        <route edges="157012386#0 157012386#1 157012386#2 157012386#3 157012386#4 157012386#5 157012386#6 157012386#7 157012386#8 5670092#0 524387551#1 524387551#2 524387551#3 524388532 420352244 584850105#0 584850105#1 5673316#11 5673316#12 5673316#13"/>
    </vehicle>
    <vehicle id="49" depart="49.00">
        <route edges="5672899#0 5672899#1 446864089 488272734 221687790 221687792#0 221687792#1 439933936 517829857 5672851 497002544#0 497002544#1 380098432#0 380098432#1 380098432#2 380098432#3 380098432#4 380098432#5 380098432#6 380098432#7 380098432#8 380098432#9 380098432#10 380098432#11"/>
    </vehicle>
    <vehicle id="50" depart="50.00">
        <route edges="5672899#0 5672899#1 446864089 496988369 384898122#0 384898122#1 110854073#0 110854073#1 110854073#2 110854073#3 110854073#4 110854073#5 110854073#6 110854073#7 110854073#8 46350695"/>
    </vehicle>
    <vehicle id="51" depart="51.00">
        <route edges="5672871#0 5672871#1 5672871#2 439842836#1 439842836#2 439842836#3 439842835#0 439842835#1 439842835#2 194923786#0 194923786#1 194923786#2 194923786#3 112116234#1 420355078 420355077 165777195#0 165777195#1 165777195#2 165777195#3"/>
    </vehicle>
    <vehicle id="52" depart="52.00">
        <route edges="5672899#0 5672899#1 446864089 488272734 221687791 451954055 485165666 524395517#0 524395517#1 524395517#2 524395517#3 420354140#0 420354140#1 457937087 454963832#0 454963832#1 40709918#0 40709918#1 165777255 5673316#0 5673316#1 5673316#2 5673316#3 5673316#4 5673316#5 5673316#6 5673316#7 5673316#8 5673316#9 5673316#10 5673316#11 5673316#12 5673316#13"/>
    </vehicle>
    <vehicle id="53" depart="53.00">
        <route edges="5672899#0 5672899#1 446864089 488272734 221687791 451954055 485165666 524395517#0 524395517#1 524395517#2 524395517#3 420354140#0 420354140#1 457937087 420354141 420354147 420354142 5669892#0 5669892#1 5669892#2 5669892#3 5669892#4 5669892#5 5669892#6 46139038#0 46139038#1 46348767#0 46348767#1 46348767#2 351540632#2"/>
    </vehicle>
    <vehicle id="54" depart="54.00">
        <route edges="25163419#0 25163419#1 -5672621#1 -5672621#0 199927849#0 199927849#1 420351724#0 420351724#1 25198451#0 25198451#1 25198451#2 110854073#4 110854073#5 -25196678"/>
    </vehicle>
    <vehicle id="55" depart="55.00">
        <route edges="496980200 420352246#0 420352246#1 420352243 420358898#0 420358898#1 420358898#2"/>
    </vehicle>
    <vehicle id="56" depart="56.00">
        <route edges="492148701#0 5670532#0 5670532#1 5670532#2 112116235#0 357946354#1 357946354#2 357946354#3 524382712 5672621#0 5672621#1 5672621#2 5672621#3 5672621#4 5672621#5 46608205#3 46608205#4 46608205#5"/>
    </vehicle>
    <vehicle id="57" depart="57.00">
        <route edges="68668539#0 68668539#1 68668539#2 68668539#3 439842823 439842831#0 439842831#1 5670092#10 5670092#11 5670092#12 5670092#13"/>
    </vehicle>
    <vehicle id="58" depart="58.00">
        <route edges="357946354#0 112116235#1 112116235#2 112116235#3 112116235#4 112116235#5 112116235#6 221687789 221687794 524395517#0 524395517#1 524395517#2 524395517#3 420354140#0 420354140#1 457937087 454963832#0 454963832#1 40709918#0 40709918#1 165777255 5673316#0 5673316#1 5673316#2 5673316#3 5673316#4 5673316#5 5673316#6 5673316#7 5673316#8 5673316#9 5673316#10 5673316#11 5673316#12 5673316#13"/>
    </vehicle>
    <vehicle id="59" depart="59.00">
        <route edges="194923768#0 194923768#1 194923768#2 231393430 421826773 46201668#0 46201668#1 110854073#2 110854073#3 110854073#4 110854073#5 110854073#6 5670633#2 5670633#3 5670633#4"/>
    </vehicle>
    <vehicle id="60" depart="60.00">
        <route edges="127691872#0 127691872#1 127691872#2 127691872#3 524395517#1 524395517#2 524395517#3 420354140#0 420354140#1 457937087 420354141 420354147 420354142 420355077 165777195#0 165777195#1 165777195#2 5671339#1 5671339#2 5670092#11 5670092#12 5670092#13"/>
    </vehicle>
    <vehicle id="61" depart="61.00">
        <route edges="25196678 110854073#6 5670633#2 5670532#1 5670532#2 112116235#0 112116235#1 112116235#2 112116235#3 112116235#4 112116235#5 112116235#6 221687789 221687794 524395516 46139048#0 46139048#1 46139048#2 46139048#3 46139048#4 46139048#5"/>
    </vehicle>
    <vehicle id="62" depart="62.00">
        <route edges="439842836#0 439842836#1 439842836#2 439842836#3 439842835#0 439842835#1 5673210#3 5673210#4 5673210#5 420352246#1 420352243 181375404#0 181375404#1 181375404#2 181375404#3 420352241 420352245 524387550 195743178 457937084#0 457937084#1 457937084#2 420352240 195743177 181546839#0 181546839#1 474054794#0 474054794#1 474054794#2 474054794#3 195745917#0 195745917#1 420351718 420351723#0 420351723#1 420351722#0 420351722#1 420351720#0 420351720#1 524382712 5672621#0 5672621#1 5672621#2 5672621#3 5672621#4 5672621#5 46608205#3 46608205#4 46608205#5"/>
    </vehicle>
    <vehicle id="63" depart="63.00">
        <route edges="188559800#0 188559800#1 188559800#2 188559800#3 188559800#4 188559800#5 188559800#6 188559800#7 5673316#2 5673316#3 5673316#4 5673316#5 5673316#6 5670366#9 5670366#10 5670366#11 5670366#12 524387551#2 420358898#1 420358898#2"/>
    </vehicle>
    <vehicle id="64" depart="64.00">
        <route edges="68668539#0 68668539#1 68668539#2 68668539#3 584850103 5672321#0 5672321#1 5672321#2 5672321#3 5672321#4 420358890 420358893 420358895 420358889 420358891 420358894 181375404#0 181375404#1 181375404#2 181375404#3 420352241 420352245 524387550 195743178 457937084#0 457937084#1 457937084#2 420352240 195743177 181546839#0 181546839#1 474054794#0 474054794#1 474054794#2 474054794#3 195745917#0 195745917#1 420351718 420351723#0 420351723#1 420351722#0 420351722#1 420351720#0 420351720#1 524382712 5672621#0 5672621#1 5672621#2 5672621#3 5672621#4 5672621#5 5672621#6 5672621#7 5672621#8 5672621#9 5672621#10 5672621#11 5672621#12 5672621#13 5672621#14 5672621#15 5672621#16 5672621#17 5672621#18 5672621#19 5672621#20 5672621#21"/>
    </vehicle>
    <vehicle id="65" depart="65.00">
        <route edges="479642043#0 -5672621#2 -5672621#1 -5672621#0 199927849#0 199927849#1 420351724#0 420351724#1 420351721#0 420351721#1 195745916#0 195745916#1 68325065#0 68325065#1 68325065#2 68325065#3 68325065#4 68325065#5 420352242 496999242 5670654 195743130#0 195743130#1 195743130#2 221687794 524395517#0 524395517#1 524395517#2 524395517#3 420354140#0 420354140#1 457937087 420354141 420354147 420354142 5669892#0 5669892#1 5669892#2 5669892#3 5669892#4 5669892#5 5669892#6 46139038#0 46139038#1 46139038#2 46139038#3 46139038#4"/>
    </vehicle>
    <vehicle id="67" depart="67.00">
        <route edges="496980201 351540632#0 439842836#2 439842836#3 439842835#0 439842835#1 5673210#3 5673210#4 5673210#5 420352246#1 420352243 181375404#0 181375404#1 181375404#2 181375404#3 420352241 420352245 524387550 195743178 457937084#0 457937084#1 457937084#2 420352240 195743177 181546839#0 181546839#1 474054794#0 474054794#1 474054794#2 474054794#3 195745917#0 195745917#1 420351718 420351723#0 420351723#1 420351722#0 420351722#1 420351720#0 420351720#1 199927850#0 199927850#1 456313638#0 456313638#1 5670633#0 5670633#1 110854073#7 110854073#8 46350695"/>
    </vehicle>
    <vehicle id="68" depart="68.00">
        <route edges="188559800#0 188559800#1 188559800#2 439842831#3 439842831#4 454031476#0 454031476#1 454031476#2 421827959 485165667#0 485165667#1 485165667#2 5669857 421827958 221687793 451954060 446864088 421827961 421827960 421827962 -194923768#2 -194923768#1 -194923768#0"/>
    </vehicle>
    <vehicle id="69" depart="69.00">
        <route edges="157012386#0 157012386#1 157012386#2 157012386#3 157012386#4 157012386#5 157012386#6 157012386#7 157012386#8 5670092#0 5670092#1 181375404#2 181375404#3 420352241 40709921#1 40709921#2 112116236 112116234#0 112116234#1 420355078 420355077 165777195#0 165777195#1 165777195#2 165777195#3"/>
    </vehicle>
    <vehicle id="70" depart="70.00">
        <route edges="439842836#0 439842836#1 439842836#2 439842836#3 439842835#0 439842835#1 5673210#3 5673210#4 5673210#5 420352246#1 420352243 181375404#0 181375404#1 181375404#2 181375404#3 420352241 420352245 524387550 195743178 457937084#0 457937084#1 457937084#2 420352240 195743177 181546839#0 181546839#1 474054794#0 474054794#1 474054794#2 474054794#3 195745917#0 195745917#1 420351718 420351723#0 420351723#1 420351722#0 420351722#1 420351720#0 420351720#1 524382712 5672621#0 5672621#1 5672621#2 5672621#3 479642042#3 479642042#4"/>
    </vehicle>
    <vehicle id="71" depart="71.00">