<?xml version="1.0" encoding="UTF-8"?>

<!-- generated on 11/29/17 20:20:16 by SUMO duarouter Version 0.31.0
<?xml version="1.0" encoding="UTF-8"?>

<configuration xmlns:xsi="http://www.w3.org/2001/XMLSchema-instance" xsi:noNamespaceSchemaLocation="http://sumo.dlr.de/xsd/duarouterConfiguration.xsd">

    <input>
        <net-file value="data/osmtest.net.xml"/>
        <route-files value="trips.trips.xml"/>
    </input>

    <output>
        <output-file value="data/osmtest.rou.xml"/>
    </output>

    <processing>
        <ignore-errors value="true"/>
    </processing>

    <time>
        <begin value="0"/>
        <end value="3600"/>
    </time>

    <report>
        <no-warnings value="true"/>
        <no-step-log value="true"/>
    </report>

</configuration>
-->

<routes xmlns:xsi="http://www.w3.org/2001/XMLSchema-instance" xsi:noNamespaceSchemaLocation="http://sumo.dlr.de/xsd/routes_file.xsd">
    <vehicle id="8" depart="8.00">
        <route edges="3005 2999#0 2999#1 2986 2707#2 2846#6 2846#7 2846#8 2846#9 2846#10 2846#11 2846#12 2846#13 2712#0 2712#1 2712#2 2712#3 2712#4 2797#0 2797#1"/>
    </vehicle>
    <vehicle id="14" depart="14.00">
        <route edges="2786#0 2786#1 2705#0 2705#1 2705#2 2732#0 2732#1 2732#2 2732#3 2732#4 2732#5 2732#6 2732#7"/>
    </vehicle>
    <vehicle id="16" depart="16.00">
        <route edges="2946#0 2946#1 2946#2 2722 2883 2910 2967#0 2967#1 2967#2 2967#3 2967#4 2706#0 2706#1 2706#2 2706#3 2706#4 2743#0 2743#1 2743#2 2743#3"/>
    </vehicle>
    <vehicle id="19" depart="19.00">
        <route edges="2988#0 2988#1 2624#0 2624#1 2624#2 2623 2806#0 2806#1 2641#2 3040#0 3040#1 2846#0 2846#1 2846#2 2846#3 2846#4 2846#5 2846#6 2846#7 2846#8 2846#9 2846#10 2846#11 2742#0 2742#1 2742#2"/>
    </vehicle>
    <vehicle id="21" depart="21.00">
        <route edges="2707#0 2707#1 2707#2 2846#6 2846#7 2846#8 2846#9 2846#10 2846#11 2846#12 2846#13 2946#0 2946#1 2946#2 2722 2883 2910 2795#0 2795#1 2795#2"/>
    </vehicle>
    <vehicle id="22" depart="22.00">
        <route edges="2777#0 2777#1 2777#2 2855#4 2855#5 2935#0 2935#1 3000 2845 2835#0 2835#1 2949 2841#2 2884#0 2884#1 2884#2 2846#3 2846#4 2846#5 2846#6 2846#7 2846#8 2846#9 2846#10 2846#11 2846#12 2846#13 2946#0 2946#1 2946#2 2722 2883 2910 2795#0 2795#1 2795#2 2870#0 2870#1 2870#2 2818"/>
    </vehicle>
    <vehicle id="29" depart="29.00">
        <route edges="2786#1 2705#0 2705#1 2705#2 2935#0 2935#1 3000 2845 2835#0 2835#1 2949 2841#2 2884#0 2884#1 2884#2 2846#3 2846#4 2846#5 2846#6 2846#7 2846#8 2846#9 2846#10 2846#11 2742#0 2742#1 2742#2 2985#0 2985#1"/>
    </vehicle>
    <vehicle id="31" depart="31.00">
        <route edges="2799#0 2799#1"/>
    </vehicle>
    <vehicle id="34" depart="34.00">
        <route edges="2742#0 2742#1 2742#2 2889#0 2889#1 2776 2684#0 2684#1"/>
    </vehicle>
    <vehicle id="37" depart="37.00">
        <route edges="2847#2 2847#3 2919 3005 2999#0 2999#1 2986 2707#2 2846#6 2846#7 2846#8 2846#9 2846#10"/>
    </vehicle>
    <vehicle id="43" depart="43.00">
        <route edges="2691#5 2691#6 2923 2759#0 2759#1 2855#0 2855#1 2855#2 2855#3 2855#4 2855#5 2732#0 2992"/>
    </vehicle>
    <vehicle id="55" depart="55.00">
        <route edges="2651 2832#1 2690#3 2690#4 2690#5 2759#0 2759#1 2855#0 2855#1 2855#2 2855#3 2855#4 2855#5 2732#0 2992 2777#1 2622 2682#0"/>
    </vehicle>
    <vehicle id="59" depart="59.00">
        <route edges="2786#0 2786#1 2705#0 2705#1 2705#2 2935#0 2935#1 3000 2845 2835#0 2835#1 2949 2841#2 2884#0 2884#1 2884#2 2846#3 2846#4 2846#5 2695#0 2695#1 2695#2 2830 2879"/>
    </vehicle>
    <vehicle id="66" depart="66.00">
        <route edges="2623 2806#0 2806#1 2641#2 3040#0 3040#1 2846#0 2846#1 2846#2 2846#3 2846#4 2846#5 2846#6 2846#7 2846#8 2846#9 2846#10 2846#11 2742#0 2742#1 2742#2 2889#0"/>
    </vehicle>
    <vehicle id="67" depart="67.00">
        <route edges="2732#1 2732#2 2786#0 2786#1 2705#0 2705#1 2705#2 2935#0 2935#1 3000 2845 2835#0 2835#1 2949 2841#2 2884#0 2884#1 2884#2 2846#3 2846#4 2846#5 2846#6 2846#7 2846#8"/>
    </vehicle>
    <vehicle id="70" depart="70.00">
        <route edges="2814#2 2814#3 2814#4 2814#5 2806#1 2641#2 3040#0 3040#1 2846#0 2846#1 2846#2 2846#3 2846#4 2846#5 2846#6 2846#7 2846#8 2846#9 2846#10 2846#11 2846#12 2846#13 2846#14 2840 2706#0 2706#1 2706#2 2706#3 2706#4"/>
    </vehicle>
    <vehicle id="73" depart="73.00">
        <route edges="2641#2 3040#0 3040#1 2846#0 2846#1 2846#2 2846#3 2846#4 2846#5 2846#6 2846#7 2846#8 2846#9 2846#10 2846#11 2846#12 2846#13 2846#14 2840 2706#0 2706#1 2706#2 2768"/>
    </vehicle>
    <vehicle id="84" depart="84.00">
        <route edges="2846#12 2846#13 2946#0 2946#1 2946#2 2722 2883 2910 2967#0"/>
    </vehicle>
    <vehicle id="85" depart="85.00">
        <route edges="2690#3 2690#4 2690#5 2759#0 2759#1 2855#0 2855#1 2855#2 2855#3 2855#4 2855#5 2732#0 2732#1 2732#2 2732#3 2732#4 2732#5 2732#6 2732#7 2732#8 2732#9 2741#0"/>
    </vehicle>
    <vehicle id="90" depart="90.00">
        <route edges="2690#3 2690#4 2690#5 2759#0 2759#1 2855#0 2855#1 2855#2 2855#3 2855#4 2855#5 2935#0 2935#1 3000 2845 2835#0"/>
    </vehicle>
    <vehicle id="91" depart="91.00">
        <route edges="2814#0 2814#1 2814#2 2814#3 2814#4 2814#5 2806#1 2641#2 3040#0 3040#1 2846#0 2846#1 2846#2 2846#3 2846#4 2846#5 2846#6 2846#7 2846#8 2846#9"/>
    </vehicle>
    <vehicle id="108" depart="108.00">
        <route edges="2847#1 2847#2 2847#3 2919 3005 2999#0 2999#1 2986 2707#2 2846#6 2846#7 2846#8 2846#9 2846#10 2846#11 2742#0 2742#1 2742#2 2985#0 2985#1 2763#0"/>
    </vehicle>
    <vehicle id="121" depart="121.00">
        <route edges="2835#1 2949 2841#2 2884#0 2884#1 2884#2 2846#3 2846#4 2846#5 2846#6 2846#7 2846#8 2846#9 2846#10 2846#11 2846#12 2846#13 2946#0 2946#1 2946#2 2722 2883 2910"/>
    </vehicle>
    <vehicle id="122" depart="122.00">
        <route edges="2999#0 2999#1 2986 2707#2 2846#6 2846#7 2846#8 2846#9 2846#10 2846#11 2846#12 2846#13 2946#0 2946#1 2946#2 2722 2883 2910 2795#0 2795#1 2795#2 2870#0 2870#1 2870#2 2818"/>
    </vehicle>
    <vehicle id="123" depart="123.00">
        <route edges="2904 2700#6 2664#3 2664#4 2664#5 2795#1 2795#2 2870#0 2870#1 2870#2 2870#3 2870#4 2870#5 2870#6 2809#0 2815#0 2815#1 2747#0 2747#1"/>
    </vehicle>
    <vehicle id="125" depart="125.00">
        <route edges="2742#1 2742#2 2889#0 2889#1 2776 2722 2883 2910 2967#0 2967#1 2967#2 2967#3 2967#4 2706#0 2706#1 2706#2 2706#3"/>
    </vehicle>
    <vehicle id="126" depart="126.00">
        <route edges="2796#2 2846#8 2846#9 2846#10 2846#11 2846#12"/>
    </vehicle>
    <vehicle id="127" depart="127.00">
        <route edges="2988#1 2690#0 2690#1 2690#2 2690#3 2690#4 2690#5 2759#0 2759#1 2855#0 2855#1 2855#2 2855#3 2855#4 2855#5 2935#0 2935#1 3000 2845 2835#0"/>
    </vehicle>
    <vehicle id="133" depart="133.00">
        <route edges="2837#1 2905#3 2705#0 2705#1 2705#2 2935#0 2935#1 3000 2845 2835#0 2835#1 2949 2841#2 2884#0 2884#1 2884#2 2846#3 2846#4 2846#5 2846#6 2846#7 2846#8 2846#9 2846#10 2846#11 2846#12 2846#13 2946#0 2946#1 2946#2 2684#0 2684#1"/>
    </vehicle>
    <vehicle id="143" depart="143.00">
        <route edges="2936 2712#3 2712#4 2797#0 2797#1 2797#2 2695#2 2830"/>
    </vehicle>
    <vehicle id="148" depart="148.00">
        <route edges="2806#0 2806#1 2641#2 3040#0 3040#1 2846#0 2846#1 2846#2 2846#3 2846#4 2846#5 2846#6 2846#7 2846#8 2846#9 2846#10 2846#11 2846#12"/>
    </vehicle>
    <vehicle id="149" depart="149.00">
        <route edges="2946#0 2946#1 2946#2 2722 2883 2910 2967#0 2967#1 2967#2 2967#3 2967#4 2706#0 2706#1 2706#2 2706#3 2706#4 2743#0 2743#1 2743#2 2743#3 3002#0 3002#1 2686#0 2686#1 2686#2 2686#3 2686#4"/>
    </vehicle>
    <vehicle id="155" depart="155.00">
        <route edges="2733#0 2733#1 2690#0 2690#1 2690#2 2690#3 2690#4 2690#5 2759#0 2759#1 2855#0 2855#1 2855#2 2855#3 2855#4 2855#5 2935#0 2935#1 3000 2845 2835#0 2835#1"/>
    </vehicle>
    <vehicle id="156" depart="156.00">
        <route edges="2641#1 2641#2 3040#0 3040#1 2846#0 2846#1 2846#2 2846#3 2846#4 2846#5 2846#6 2846#7 2846#8 2846#9 2846#10 2846#11 2846#12 2846#13 2846#14 2840 2706#0 2878#0 2878#1"/>
    </vehicle>
    <vehicle id="166" depart="166.00">
        <route edges="2837#0 2837#1 2905#3 2705#0 2705#1 2705#2 2935#0 2935#1 3000 2845 2835#0 2835#1 2949 2841#2"/>
    </vehicle>
    <vehicle id="173" depart="173.00">
        <route edges="3040#0 3040#1 2846#0 2846#1 2846#2 2846#3 2846#4 2846#5 2846#6 2846#7 2846#8 2846#9 2846#10"/>
    </vehicle>
    <vehicle id="179" depart="179.00">
        <route edges="2931#0 2931#1 2759#1 2855#0 2787#0"/>
    </vehicle>
    <vehicle id="184" depart="184.00">
        <route edges="2742#1 2742#2 2889#0 2889#1 2776 2722 2883 2910 2795#0 2795#1 2795#2 2870#0 2870#1"/>
    </vehicle>
    <vehicle id="187" depart="187.00">
        <route edges="2832#0 2832#1 2690#3 2690#4 2690#5 2759#0 2759#1 2841#0 2841#1 2841#2 2884#0 2884#1 2884#2 2846#3 2846#4 2846#5 2846#6 2846#7 2846#8 2796#0 2796#1 2796#2"/>
    </vehicle>
    <vehicle id="188" depart="188.00">
        <route edges="2690#3 2690#4 2690#5 2759#0 2759#1 2855#0 2855#1 2855#2 2855#3 2855#4 2855#5 2935#0 2935#1 3000"/>
    </vehicle>
    <vehicle id="189" depart="189.00">
        <route edges="2691#6 2923 2759#0 2759#1 2841#0 2841#1 2841#2 2884#0 2884#1 2884#2 2846#3 2846#4 2846#5 2846#6 2846#7 2846#8 2846#9 2846#10 2846#11 2846#12 2846#13 2712#0 2712#1"/>
    </vehicle>
    <vehicle id="216" depart="216.00">
        <route edges="2624#0 2624#1 2624#2 2623 2806#0 2806#1 2641#2 3040#0 3040#1 2846#0 2846#1 2846#2 2846#3 2846#4 2846#5 2846#6 2846#7 2846#8 2846#9 2846#10 2846#11 2846#12 2846#13 2846#14 2840 2706#0 2706#1"/>
    </vehicle>
    <vehicle id="221" depart="221.00">
        <route edges="2697 2857#1 2857#2 2664#5 2795#1 2795#2 2870#0 2870#1 2870#2 2870#3 2870#4 2870#5 2870#6 2698#0 2698#1 2698#2 2698#3"/>
    </vehicle>
    <vehicle id="226" depart="226.00">
        <route edges="2953 2967#3 2967#4 2706#0 2706#1 2706#2 2706#3 2706#4 2743#0 2743#1"/>
    </vehicle>
    <vehicle id="232" depart="232.00">
        <route edges="2847#3 2919 3005 2999#0 2999#1 2986 2707#2 2846#6 2846#7 2846#8 2846#9 2846#10 2846#11 2846#12 2846#13 2846#14 2840 2706#0 2706#1 2706#2"/>
    </vehicle>
    <vehicle id="242" depart="242.00">
        <route edges="2849 2846#4 2846#5 2846#6 2846#7 2846#8 2846#9 2846#10 2846#11 2846#12 2846#13 2946#0 2946#1 2946#2 2722 2883 2910 2795#0 2795#1 2795#2 2870#0 2870#1 2870#2 2870#3 2870#4 2870#5 2870#6 2809#0 2815#0 2815#1 2747#0 2747#1 2747#2 2645#0 2645#1"/>
    </vehicle>
    <vehicle id="245" depart="245.00">
        <route edges="2905#3 2705#0 2705#1 2705#2 2935#0 2935#1 2939#0"/>
    </vehicle>
    <vehicle id="258" depart="258.00">
        <route edges="2691#6 2923 2759#0 2759#1 2855#0 2855#1 2855#2 2855#3 2855#4 2855#5 2732#0 2732#1 2732#2 2732#3 2732#4 2732#5 2894#0 2894#1 2894#2 2913#0 2913#1 2913#2 3002#0 3002#1"/>
    </vehicle>
    <vehicle id="259" depart="259.00">
        <route edges="2690#0 2690#1 2690#2 2690#3 2690#4 2690#5 2759#0 2759#1 2855#0 2855#1 2855#2 2855#3 2855#4 2855#5 2935#0 2935#1 3000 2845"/>
    </vehicle>
    <vehicle id="261" depart="261.00">
        <route edges="2776 2722 2883 2910 2967#0 2967#1 2967#2 2967#3 2967#4 2706#0 2706#1 2706#2"/>
    </vehicle>
    <vehicle id="267" depart="267.00">
        <route edges="2837#0 2837#1 2905#3 2705#0 2705#1 2705#2 2732#0 2732#1 2732#2 2732#3 2732#4 2732#5 2732#6 2732#7 2732#8 2732#9 2741#0 2741#1 2741#2 2665#0 2658"/>
    </vehicle>
    <vehicle id="271" depart="271.00">
        <route edges="2919 3005 2999#0 2999#1 2986 2707#2 2846#6 2846#7 2846#8 2796#0 2796#1 2796#2"/>
    </vehicle>
    <vehicle id="280" depart="280.00">
        <route edges="2690#4 2690#5 2759#0 2759#1 2855#0 2855#1 2855#2 2855#3 2855#4 2855#5 2732#0 2732#1 2732#2 2732#3 2732#4 2732#5 2732#6 2865#0 2865#1 2865#2 2865#3 2865#4"/>
    </vehicle>
    <vehicle id="290" depart="290.00">
        <route edges="2641#2 3040#0 3040#1 2846#0 2846#1 2846#2 2846#3 2846#4 2846#5 2846#6"/>
    </vehicle>
    <vehicle id="291" depart="291.00">
        <route edges="2837#0 2837#1 2905#3 2705#0 2705#1 2705#2 2935#0 2935#1 3000 2845 2835#0 2835#1 2949 2841#2 2884#0 2884#1 2884#2 2846#3 2846#4 2846#5 2846#6 2846#7 2846#8 2846#9 2846#10 2846#11 2846#12 2846#13 2946#0 2946#1 2946#2 2684#0 3042#0"/>
    </vehicle>
    <vehicle id="296" depart="296.00">
        <route edges="2967#2 2967#3 2967#4 2706#0 2706#1 2706#2 2706#3 2706#4 2743#0"/>
    </vehicle>
    <vehicle id="298" depart="298.00">
        <route edges="2690#4 2690#5 2759#0 2759#1 2841#0 2841#1 2841#2 2884#0 2884#1 2884#2 2846#3 2846#4 2846#5 2846#6 2846#7 2846#8 2846#9 2846#10 2846#11 2846#12 2846#13 2946#0 2946#1 2946#2 2722 2883 2910 2795#0"/>
    </vehicle>
    <vehicle id="299" depart="299.00">
        <route edges="2832#0 2832#1 2690#3 2690#4 2690#5 2759#0 2759#1 2841#0 2841#1 2841#2 2884#0 2884#1 2884#2 2846#3 2846#4 2846#5 2846#6 2846#7 2846#8 2846#9 2846#10 2846#11 2846#12 2846#13 2846#14 2840 2706#0 2878#0 2878#1"/>
    </vehicle>
    <vehicle id="303" depart="303.00">
        <route edges="2814#4 2814#5 2806#1 2641#2 3040#0 3040#1 2846#0 2846#1 2846#2 2846#3 2846#4 2846#5 2846#6 2846#7 2846#8 2846#9 2846#10 2846#11 2846#12 2846#13 2846#14 2840 2706#0 2706#1 2706#2 2706#3 2706#4 2743#0 2743#1 2743#2"/>
    </vehicle>
    <vehicle id="313" depart="313.00">
        <route edges="2691#1 2832#0 2832#1 2690#3 2690#4 2690#5 2759#0 2759#1 2841#0 2841#1 2841#2 2884#0 2884#1 2884#2 2846#3 2846#4 2846#5 2846#6 2846#7 2846#8 2846#9 2846#10 2846#11 2846#12 2846#13 2946#0 2946#1 2946#2 2722 2883 2910 2967#0 2967#1 2967#2 2967#3"/>
    </vehicle>
    <vehicle id="315" depart="315.00">
        <route edges="2846#6 2846#7 2846#8 2846#9 2846#10 2846#11 2846#12 2846#13 2846#14 2840 2706#0 2706#1 2706#2 2706#3 2706#4 2743#0 2743#1 2743#2 2743#3 3002#0 3002#1"/>
    </vehicle>
    <vehicle id="318" depart="318.00">
        <route edges="2959 2690#3 2690#4 2690#5 2759#0 2759#1 2855#0 2855#1 2855#2 2855#3 2855#4 2855#5 2732#0 2732#1 2732#2 2732#3 2732#4 2732#5 2732#6 2732#7 2785#0 2780"/>
    </vehicle>
    <vehicle id="328" depart="328.00">
        <route edges="2743#0 2743#1"/>
    </vehicle>
    <vehicle id="330" depart="330.00">
        <route edges="2732#1 2732#2 2786#0 2786#1 2705#0 2705#1 2705#2 2935#0 2935#1 3000 2845 2835#0 2835#1 2949 2841#2 2884#0 2884#1 2884#2 2846#3 2846#4 2846#5 2846#6 2846#7 2846#8 2846#9 2846#10 2846#11 2846#12 2846#13 2946#0 2946#1 2946#2 2722 2883 2910 2967#0 2967#1 2967#2 2967#3"/>
    </vehicle>
    <vehicle id="337" depart="337.00">
        <route edges="2814#1 2814#2 2814#3 2814#4 2814#5 2806#1 2641#2 3040#0 3040#1 2846#0 2846#1 2846#2 2846#3 2846#4 2846#5 2846#6 2847#0 2847#1 2847#2 2847#3 2847#4 2847#5 2847#6 2847#7 2847#8 2847#9"/>
    </vehicle>
    <vehicle id="341" depart="341.00">
        <route edges="2983#1 2686#0 2686#1"/>
    </vehicle>
    <vehicle id="355" depart="355.00">
        <route edges="2705#1 2705#2 2935#0 2935#1 3000 2845 2835#0 2835#1 2949 2841#2 2884#0 2884#1 2884#2 2846#3 2846#4 2846#5 2846#6 2847#0 2847#1"/>
    </vehicle>
    <vehicle id="356" depart="356.00">
        <route edges="2691#4 2691#5 2691#6 2923 2759#0 2759#1 2855#0 2855#1 2855#2 2855#3 2855#4 2855#5 2732#0 2732#1 2732#2 2732#3 2732#4 2732#5 2732#6 2865#0 2865#1 2865#2 2865#3 2865#4"/>
    </vehicle>
    <vehicle id="357" depart="357.00">
        <route edges="2691#1 2832#0 2832#1 2690#3 2690#4 2690#5 2759#0 2759#1 2841#0 2841#1 2841#2 2884#0 2884#1 2884#2 2846#3 2846#4 2846#5 2846#6 2846#7 2846#8 2846#9 2846#10 2846#11 2846#12 2846#13 2946#0 2946#1 2946#2 2722 2883 2910 2795#0 2795#1 2795#2 2870#0 2870#1 2870#2 2870#3"/>
    </vehicle>
    <vehicle id="358" depart="358.00">
        <route edges="2691#0 2691#1 2832#0 2832#1 2690#3 2690#4 2690#5 2759#0 2759#1 2841#0 2841#1 2841#2 2884#0 2884#1 2884#2 2846#3 2846#4 2846#5 2846#6 2846#7 2846#8 2846#9 2773#0 2773#1 2773#2 2773#3"/>
    </vehicle>
    <vehicle id="359" depart="359.00">
        <route edges="2857#2 2664#5 2795#1 2795#2 2870#0"/>
    </vehicle>
    <vehicle id="363" depart="363.00">
        <route edges="2905#2 2905#3 2705#0 2705#1 2705#2 2732#0 2992 2777#1 2622 2682#0 2925 2855#2 2855#3"/>
    </vehicle>
    <vehicle id="367" depart="367.00">
        <route edges="2806#1 2641#2 3040#0 3027#0 3027#1 3027#2 3027#3"/>
    </vehicle>
    <vehicle id="370" depart="370.00">
        <route edges="2845 2835#0 2835#1 2949 2841#2 2884#0 2884#1 2884#2 2846#3 2846#4 2846#5 2846#6 2846#7 2846#8 2846#9 2846#10 2846#11 2846#12 2846#13 2712#0"/>
    </vehicle>
    <vehicle id="372" depart="372.00">
        <route edges="3025#0 3025#1 2967#1 2967#2 2967#3 2967#4 2706#0 2706#1 2706#2 2706#3 2706#4 2743#0 2743#1"/>
    </vehicle>
    <vehicle id="378" depart="378.00">
        <route edges="2705#0 2705#1 2705#2 2935#0 2935#1 3000 2845 2835#0 2835#1 2949 2841#2 2884#0 2884#1 2884#2 2846#3 2846#4 2846#5 2846#6 2846#7 2846#8 2846#9 2846#10 2846#11 2846#12 2846#13 2846#14 2840 2706#0 2878#0 2878#1"/>
    </vehicle>
    <vehicle id="399" depart="399.00">
        <route edges="2815#0 2815#1 2747#0 2747#1 2747#2 2747#3 2870#6 2698#0 2698#1 2698#2"/>
    </vehicle>
    <vehicle id="404" depart="404.00">
        <route edges="2700#1"/>
    </vehicle>
    <vehicle id="407" depart="407.00">
        <route edges="2786#0 2786#1 2705#0 2705#1 2705#2 2935#0 2935#1 3000 2845 2835#0 2835#1 2949 2841#2 2884#0 2884#1 2884#2 2846#3 2846#4 2846#5 2846#6 2846#7 2846#8 2846#9 2773#0 2773#1"/>
    </vehicle>
    <vehicle id="415" depart="415.00">
        <route edges="2691#6 2960#0 2960#1 2960#2 2960#3 2960#4 3036#0 3036#1 3036#2 3036#3 3036#4 2802"/>
    </vehicle>
    <vehicle id="419" depart="419.00">
        <route edges="2967#3 2967#4 2706#0 2878#0"/>
    </vehicle>
    <vehicle id="426" depart="426.00">
        <route edges="2691#6 2923 2759#0 2759#1 2855#0 2855#1 2855#2 2855#3 2855#4 2855#5 2732#0 2732#1 2732#2 2732#3"/>
    </vehicle>
    <vehicle id="445" depart="445.00">
        <route edges="3040#0 3040#1 2846#0 2846#1 2846#2 2846#3 2846#4 2846#5 2846#6 2846#7 2846#8 2846#9 2846#10 2846#11 2742#0 2742#1 2742#2 2985#0 2985#1"/>
    </vehicle>
    <vehicle id="449" depart="449.00">
        <route edges="2842 2690#2 2690#3 2690#4"/>
    </vehicle>
    <vehicle id="469" depart="469.00">
        <route edges="3040#0 3040#1 2846#0 2846#1 2846#2 2846#3 2846#4 2846#5 2846#6 2846#7 2846#8 2846#9 2846#10 2846#11 2846#12 2846#13 2946#0 2946#1 2946#2 2722 2883 2910 2795#0 2795#1 2795#2 2870#0 2977"/>
    </vehicle>
    <vehicle id="481" depart="481.00">
        <route edges="2711#1 2690#4 2690#5 2759#0 2759#1 2841#0 2841#1 2841#2 2884#0 2884#1 2884#2 2846#3 2846#4 2846#5 2846#6 2846#7 2846#8 2846#9"/>
    </vehicle>
    <vehicle id="484" depart="484.00">
        <route edges="2846#2 2846#3 2846#4 2846#5 2846#6 2847#0 2847#1 2847#2 2847#3"/>
    </vehicle>
    <vehicle id="490" depart="490.00">
        <route edges="2631#0 2631#1"/>
    </vehicle>
    <vehicle id="496" depart="496.00">
        <route edges="2923 2759#0 2759#1 2841#0 2841#1 2841#2 2884#0 2884#1 2884#2 2846#3 2846#4 2846#5 2846#6 2846#7 2846#8 2846#9 2846#10 2846#11 2846#12 2846#13 2946#0 2946#1 2946#2 2722 2883"/>
    </vehicle>
    <vehicle id="510" depart="510.00">
        <route edges="2776 2722 2883 2910 2795#0 2795#1 2795#2 2870#0 2870#1 2870#2 2870#3 2870#4 2870#5 2870#6 2809#0 2809#1 2809#2"/>
    </vehicle>
    <vehicle id="526" depart="526.00">
        <route edges="2733#0 2733#1 2624#0 2624#1 2624#2 2623 2806#0 2806#1 2641#2 3040#0 3040#1 2846#0 2846#1 2846#2 2846#3 2846#4 2846#5 2846#6 2846#7 2846#8 2846#9 2846#10 2846#11 2846#12"/>
    </vehicle>
    <vehicle id="539" depart="539.00">
        <route edges="2707#2 2846#6 2846#7 2846#8 2846#9 2846#10 2846#11 2846#12 2846#13 2946#0 2946#1 2946#2 2722 2883 2910 2795#0 2795#1 2795#2 2870#0 2870#1 2870#2 2870#3 2870#4 2870#5 2870#6 2809#0 2809#1 2809#2 2809#3"/>
    </vehicle>
    <vehicle id="544" depart="544.00">
        <route edges="2905#3 2705#0 2705#1 2705#2 2935#0 2935#1 3000 2845 2835#0 2835#1 2949 2841#2 2884#0 2884#1 2884#2 2846#3 2846#4 2846#5 2846#6 2846#7 2846#8 2846#9 2846#10 2846#11 2846#12 2846#13 2946#0 2946#1 2946#2 2722 2883 2910"/>
    </vehicle>
    <vehicle id="547" depart="547.00">
        <route edges="3023 2786#1 2705#0 2705#1 2705#2 2732#0 2732#1 2732#2 2732#3 2732#4 2732#5 2732#6 2732#7 2732#8 2732#9 2741#0"/>
    </vehicle>
    <vehicle id="550" depart="550.00">
        <route edges="2686#4 2686#5 2686#6"/>
    </vehicle>
    <vehicle id="552" depart="552.00">
        <route edges="2722 2883 2910 2967#0 2967#1 2967#2 2967#3 2967#4 2706#0 2706#1 2706#2 2706#3 2706#4 2743#0 2743#1 2743#2 2743#3 3002#0"/>
    </vehicle>
    <vehicle id="556" depart="556.00">
        <route edges="3005 2999#0 2999#1 2986 2707#2 2846#6 2846#7 2846#8 2846#9 2846#10 2846#11 2846#12 2846#13 2712#0 2712#1 2712#2"/>
    </vehicle>
    <vehicle id="560" depart="560.00">
        <route edges="2931#1 2759#1 2841#0 2841#1 2841#2 2884#0 2884#1 2884#2 2846#3 2846#4 2846#5 2846#6 2847#0 2847#1 2847#2 2847#3 2847#4 2847#5 2847#6 2847#7 2847#8 2847#9"/>
    </vehicle>
    <vehicle id="561" depart="561.00">
        <route edges="2986 2707#2 2846#6 2846#7 2846#8 2846#9 2846#10 2846#11 2742#0 2742#1 2742#2 2985#0 2985#1 2763#0"/>
    </vehicle>
    <vehicle id="562" depart="562.00">
        <route edges="2690#2 2690#3 2690#4 2690#5 2759#0 2759#1 2841#0 2841#1 2841#2 2884#0 2884#1 2884#2 2846#3 2846#4 2846#5 2846#6 2846#7 2846#8 2846#9 2846#10 2846#11 2742#0 2742#1 2899 2926#1"/>
    </vehicle>
    <vehicle id="564" depart="564.00">
        <route edges="2705#1 2705#2 2935#0 2935#1 2939#0 2939#1 2939#2"/>
    </vehicle>
    <vehicle id="570" depart="570.00">
        <route edges="2931#0 2931#1 2759#1 2841#0 2841#1 2841#2 2884#0 2884#1 2884#2 2846#3 2846#4 2846#5 2846#6 2846#7 2846#8 2846#9 2846#10 2846#11 2846#12 2846#13 2712#0 2712#1 2712#2 2712#3"/>
    </vehicle>
    <vehicle id="576" depart="576.00">
        <route edges="2814#0 2814#1 2814#2 2814#3 2814#4 2814#5 2806#1 2641#2 3040#0 3040#1 2846#0 2846#1 2846#2 2846#3 2846#4 2846#5 2846#6 2846#7 2846#8 2846#9 2846#10 2846#11 2846#12 2846#13 2712#0 2712#1 2712#2 2712#3 2712#4"/>
    </vehicle>
    <vehicle id="577" depart="577.00">
        <route edges="2733#1 2690#0 2690#1 2690#2 2690#3 2690#4 2690#5 2759#0 2759#1 2855#0 2855#1 2855#2 2855#3 2855#4 2855#5 2732#0 2732#1 2732#2 2732#3 2732#4 3018#0"/>
    </vehicle>
    <vehicle id="580" depart="580.00">
        <route edges="2690#1 2690#2 2690#3 2690#4 2690#5 2759#0 2759#1 2855#0 2855#1 2855#2 2855#3 2855#4 2855#5 2732#0 2992 2777#1 2622 2682#0 2925"/>
    </vehicle>
    <vehicle id="585" depart="585.00">
        <route edges="2623 2806#0 2806#1 2641#2 3040#0 3040#1 2846#0 2846#1 2846#2 2846#3 2846#4 2846#5 2846#6 2846#7 2846#8 2846#9 2846#10 2846#11 2846#12 2846#13 2946#0 2946#1 2946#2 2684#0 3042#0 3042#1"/>
    </vehicle>
    <vehicle id="589" depart="589.00">
        <route edges="2691#1 2832#0 2832#1"/>
    </vehicle>
    <vehicle id="592" depart="592.00">
        <route edges="2959 2690#3 2690#4 2690#5 2759#0 2759#1 2841#0 2841#1 2841#2 2884#0 2884#1 2884#2 2846#3 2846#4 2846#5 2846#6 2847#0 2847#1 2847#2 2847#3 2847#4 2847#5 2847#6 2847#7 2847#8"/>
    </vehicle>
    <vehicle id="596" depart="596.00">
        <route edges="2732#1 2732#2 2786#0 2786#1 2705#0 2705#1 2705#2 2935#0 2935#1 3000 2845 2835#0 2835#1 2949 2841#2 2884#0 2884#1 2884#2 2846#3 2846#4 2846#5 2846#6 2846#7 2846#8 2846#9 2846#10 2846#11 2742#0 2742#1 2742#2 2889#0 2889#1 2776"/>
    </vehicle>
    <vehicle id="597" depart="597.00">
        <route edges="2855#2 2855#3 2855#4 2855#5 2935#0 2935#1 3000 2845 2835#0"/>
    </vehicle>
    <vehicle id="599" depart="599.00">
        <route edges="2732#2 2786#0 2786#1 2705#0 2705#1 2705#2 2935#0 2935#1 3000 2845 2835#0 2835#1 2949 2841#2 2884#0 2884#1 2884#2 2846#3 2846#4 2846#5 2846#6 2846#7 2846#8 2846#9 2846#10 2846#11 2846#12 2846#13 2946#0 2946#1 2946#2 2722 2883 2910 2795#0 2795#1 2795#2 2870#0 2870#1 2870#2"/>
    </vehicle>
    <vehicle id="615" depart="615.00">
        <route edges="2835#1 2949 2841#2 2884#0 2884#1 2884#2 2846#3 2846#4 2846#5 2846#6 2847#0 2847#1 2847#2 2847#3 2847#4 2847#5 2847#6 2847#7 2847#8 2847#9 2655#0 2655#1"/>
    </vehicle>
    <vehicle id="621" depart="621.00">
        <route edges="2988#0 2988#1 2624#0 2624#1 2624#2 2623 2806#0 2806#1 2641#2 3040#0 3040#1 2846#0 2846#1 2846#2 2846#3 2846#4 2846#5 2846#6"/>
    </vehicle>
    <vehicle id="630" depart="630.00">
        <route edges="2932#0 2932#1 2932#2 2842 2690#2 2690#3 2690#4 2690#5 2759#0 2759#1 2841#0 2841#1 2841#2 2884#0 2884#1 2884#2 2846#3 2846#4 2846#5 2846#6 2846#7 2846#8 2846#9 2846#10 2846#11 2846#12 2846#13 2946#0 2946#1 2946#2 2722 2883 2910 2795#0 2795#1 2795#2 2870#0 2870#1 2870#2 2870#3 2870#4 2870#5 2870#6 2809#0"/>
    </vehicle>
    <vehicle id="634" depart="634.00">
        <route edges="2846#1 2846#2 2846#3 2846#4 2846#5 2846#6 2846#7 2846#8 2846#9 2846#10 2846#11 2846#12 2846#13 2946#0 2946#1 2946#2 2722 2883 2910 2795#0 2795#1 2795#2 2870#0 2870#1 2870#2 2818"/>
    </vehicle>
    <vehicle id="635" depart="635.00">
        <route edges="2759#0 2759#1 2841#0 2841#1 2841#2 2884#0 2884#1 2884#2 2846#3 2846#4 2846#5 2846#6 2846#7 2846#8 2846#9 2846#10 2846#11 2742#0 2742#1 2899 2926#1"/>
    </vehicle>
    <vehicle id="641" depart="641.00">
        <route edges="2790 2932#2 2842 2690#2 2690#3 2690#4 2690#5 2759#0 2759#1 2841#0 2841#1 2841#2 2884#0 2884#1 2884#2 2846#3 2846#4 2846#5 2846#6 2846#7 2846#8 2846#9 2846#10 2846#11 2846#12 2846#13 2946#0 2946#1 2946#2 2722 2883 2910 2795#0 2795#1 2890#0 2890#1 2664#2 2664#3 2664#4"/>
    </vehicle>
    <vehicle id="646" depart="646.00">
        <route edges="2814#3 2814#4 2814#5 2806#1 2641#2 3040#0 3040#1 2846#0 2846#1 2846#2 2846#3 2846#4 2846#5 2846#6 2846#7 2846#8 2846#9 2846#10 2846#11 2742#0 2742#1 2742#2 2889#0 2889#1 2776"/>
    </vehicle>
    <vehicle id="650" depart="650.00">
        <route edges="2711#0 2711#1 2690#4 2690#5 2759#0 2759#1 2855#0 2855#1 2855#2 2855#3 2855#4 2855#5 2732#0 2732#1 2732#2 2732#3 2732#4 2732#5 2732#6 2865#0 2865#1 2865#2"/>
    </vehicle>
    <vehicle id="653" depart="653.00">
        <route edges="2884#2 2846#3 2846#4 2846#5 2846#6 2846#7 2846#8 2846#9 2846#10 2846#11 2846#12 2846#13 2712#0 2712#1 2712#2 2712#3 2712#4 2797#0 2797#1 2797#2"/>
    </vehicle>
    <vehicle id="660" depart="660.00">
        <route edges="2742#0 2742#1 2742#2 2889#0 2889#1 2776 2722 2883 2910 2795#0"/>
    </vehicle>
    <vehicle id="665" depart="665.00">
        <route edges="2847#1 2847#2 2847#3 2919 3005 2999#0 2999#1 2986 2707#2 2846#6 2846#7 2846#8 2846#9 2846#10 2846#11 2742#0 2742#1 2742#2 2985#0 2985#1 2934#0"/>
    </vehicle>
    <vehicle id="667" depart="667.00">
        <route edges="2742#0 2742#1 2742#2 2889#0 2889#1 2776 2722 2883 2910 2967#0 2967#1 2967#2 2967#3 2967#4 2821"/>
    </vehicle>
    <vehicle id="670" depart="670.00">
        <route edges="2705#2 2732#0 2732#1 2732#2 2732#3 2732#4 2732#5 2732#6 2732#7 2732#8 2850#0 2850#1 2893"/>
    </vehicle>
    <vehicle id="672" depart="672.00">
        <route edges="2884#2 2846#3 2846#4 2846#5 2846#6 2846#7 2846#8 2846#9 2846#10 2846#11 2846#12 2846#13 2846#14 2840 2706#0 2706#1 2706#2 2768 2688"/>
    </vehicle>
    <vehicle id="681" depart="681.00">
        <route edges="2623 2806#0 2806#1 2641#2 3040#0 3040#1 2846#0 2846#1 2846#2 2846#3 2846#4 2846#5 2846#6 2846#7 2846#8 2846#9 2846#10 2846#11 2846#12 2846#13 2946#0 2946#1 2946#2 2722 2883 2910 2795#0 2795#1 2890#0 2890#1 2664#2 2664#3 2746#0"/>
    </vehicle>
    <vehicle id="686" depart="686.00">
        <route edges="2814#3 2814#4 2814#5 2806#1 2641#2 3040#0 3040#1 2846#0 2846#1 2846#2 2846#3 2846#4 2846#5 2846#6 2846#7 2846#8 2846#9 2846#10 2846#11 2846#12 2846#13 2846#14 2840 2706#0 2706#1 2706#2 2768"/>
    </vehicle>
    <vehicle id="702" depart="702.00">
        <route edges="2855#4 2855#5 2732#0 2732#1 2732#2 2732#3 2732#4"/>
    </vehicle>
    <vehicle id="705" depart="705.00">
        <route edges="2932#3 2959 2690#3 2690#4 2690#5 2759#0 2759#1 2841#0 2841#1 2841#2 2884#0 2884#1 2884#2 2846#3 2846#4 2846#5 2846#6 2846#7 2846#8 2846#9 2846#10 2846#11 2846#12 2846#13 2946#0 2946#1 2946#2 2722 2883 2910 2795#0 2795#1 2795#2 2870#0 2870#1 2870#2 2870#3 2870#4 2870#5 2870#6 2809#0"/>
    </vehicle>
    <vehicle id="714" depart="714.00">
        <route edges="2847#2 2847#3 2919 3005 2999#0 2999#1 2986 2707#2 2846#6 2846#7 2846#8 2846#9 2846#10 2846#11 2846#12 2846#13 2846#14 2840 2706#0 2706#1 2706#2 2706#3 2706#4 2743#0 2743#1 2743#2 2743#3 3002#0 3002#1"/>
    </vehicle>
    <vehicle id="722" depart="722.00">
        <route edges="2905#2 2905#3 2705#0 2705#1 2705#2 2935#0 2935#1 3000 2845 2835#0 2835#1 2949 2841#2 2884#0 2884#1 2884#2 2846#3 2846#4 2846#5 2846#6 2847#0 2847#1 2847#2"/>
    </vehicle>
    <vehicle id="746" depart="746.00">
        <route edges="2999#0 2999#1 2986 2707#2 2846#6 2846#7 2846#8 2846#9"/>
    </vehicle>
    <vehicle id="750" depart="750.00">
        <route edges="2990#0 2990#1 2673 3006"/>
    </vehicle>
    <vehicle id="754" depart="754.00">
        <route edges="2624#1 2624#2 2623 2806#0 2806#1 2641#2 3040#0 3040#1 2846#0 2846#1 2846#2 2846#3 2846#4 2846#5 2846#6 2847#0 2847#1 2847#2 3013#0 2822"/>
    </vehicle>
    <vehicle id="756" depart="756.00">