<additional xmlns:xsi="http://www.w3.org/2001/XMLSchema-instance" xsi:noNamespaceSchemaLocation="http://sumo.dlr.de/xsd/additional_file.xsd">
    <laneAreaDetector file="e2.output.xml" freq="60" friendlyPos="x" id="1_e2det_-11_0" lane="-11_0" length="60" pos="99.12"/>
    <laneAreaDetector file="e2.output.xml" freq="60" friendlyPos="x" id="1_e2det_-11_1" lane="-11_1" length="60" pos="99.12"/>
    <laneAreaDetector file="e2.output.xml" freq="60" friendlyPos="x" id="1_e2det_-3_0" lane="-3_0" length="60" pos="152.59"/>
    <laneAreaDetector file="e2.output.xml" freq="60" friendlyPos="x" id="1_e2det_-3_1" lane="-3_1" length="60" pos="152.59"/>
    <laneAreaDetector file="e2.output.xml" freq="60" friendlyPos="x" id="1_e2det_-3_2" lane="-3_2" length="60" pos="152.59"/>
    <laneAreaDetector file="e2.output.xml" freq="60" friendlyPos="x" id="1_e2det_-7_0" lane="-7_0" length="60" pos="125.77000000000001"/>
    <laneAreaDetector file="e2.output.xml" freq="60" friendlyPos="x" id="1_e2det_-7_1" lane="-7_1" length="60" pos="125.77000000000001"/>
    <laneAreaDetector file="e2.output.xml" freq="60" friendlyPos="x" id="1_e2det_-9_0" lane="-9_0" length="60" pos="121.36000000000001"/>
    <laneAreaDetector file="e2.output.xml" freq="60" friendlyPos="x" id="1_e2det_-9_1" lane="-9_1" length="60" pos="121.36000000000001"/>
    <laneAreaDetector file="e2.output.xml" freq="60" friendlyPos="x" id="1_e2det_-9_2" lane="-9_2" length="60" pos="121.36000000000001"/>
    <laneAreaDetector file="e2.output.xml" freq="60" friendlyPos="x" id="12_e2det_-116_0" lane="-116_0" length="60" pos="83.28"/>
    <laneAreaDetector file="e2.output.xml" freq="60" friendlyPos="x" id="12_e2det_-38_0" lane="-38_0" length="60" pos="100.32"/>
    <laneAreaDetector file="e2.output.xml" freq="60" friendlyPos="x" id="12_e2det_-38_1" lane="-38_1" length="60" pos="100.32"/>
    <laneAreaDetector file="e2.output.xml" freq="60" friendlyPos="x" id="12_e2det_-64_0" lane="-64_0" length="60" pos="68.5"/>
    <laneAreaDetector file="e2.output.xml" freq="60" friendlyPos="x" id="12_e2det_-64_1" lane="-64_1" length="60" pos="68.5"/>
    <laneAreaDetector file="e2.output.xml" freq="60" friendlyPos="x" id="12_e2det_13_0" lane="13_0" length="60" pos="49.48"/>
    <laneAreaDetector file="e2.output.xml" freq="60" friendlyPos="x" id="12_e2det_17_0" lane="17_0" length="60" pos="133.15"/>
    <laneAreaDetector file="e2.output.xml" freq="60" friendlyPos="x" id="12_e2det_17_1" lane="17_1" length="60" pos="133.15"/>
    <laneAreaDetector file="e2.output.xml" freq="60" friendlyPos="x" id="12_e2det_17_2" lane="17_2" length="60" pos="133.15"/>
    <laneAreaDetector file="e2.output.xml" freq="60" friendlyPos="x" id="14_e2det_-117_0" lane="-117_0" length="60" pos="39.4"/>
    <laneAreaDetector file="e2.output.xml" freq="60" friendlyPos="x" id="14_e2det_-117_1" lane="-117_1" length="60" pos="39.4"/>
    <laneAreaDetector file="e2.output.xml" freq="60" friendlyPos="x" id="14_e2det_-117_2" lane="-117_2" length="60" pos="39.4"/>
    <laneAreaDetector file="e2.output.xml" freq="60" friendlyPos="x" id="14_e2det_-119_0" lane="-119_0" length="60" pos="46.43"/>
    <laneAreaDetector file="e2.output.xml" freq="60" friendlyPos="x" id="14_e2det_-119_1" lane="-119_1" length="60" pos="46.43"/>
    <laneAreaDetector file="e2.output.xml" freq="60" friendlyPos="x" id="14_e2det_-119_2" lane="-119_2" length="60" pos="46.43"/>
    <laneAreaDetector file="e2.output.xml" freq="60" friendlyPos="x" id="14_e2det_15_0" lane="15_0" length="60" pos="72.69"/>
    <laneAreaDetector file="e2.output.xml" freq="60" friendlyPos="x" id="14_e2det_15_1" lane="15_1" length="60" pos="72.69"/>
    <laneAreaDetector file="e2.output.xml" freq="60" friendlyPos="x" id="18_e2det_-121_0" lane="-121_0" length="60" pos="132.83"/>
    <laneAreaDetector file="e2.output.xml" freq="60" friendlyPos="x" id="18_e2det_-121_1" lane="-121_1" length="60" pos="132.83"/>
    <laneAreaDetector file="e2.output.xml" freq="60" friendlyPos="x" id="18_e2det_-123_0" lane="-123_0" length="60" pos="79.95000000000002"/>
    <laneAreaDetector file="e2.output.xml" freq="60" friendlyPos="x" id="18_e2det_-123_1" lane="-123_1" length="60" pos="79.95000000000002"/>
    <laneAreaDetector file="e2.output.xml" freq="60" friendlyPos="x" id="18_e2det_-123_2" lane="-123_2" length="60" pos="79.95000000000002"/>
    <laneAreaDetector file="e2.output.xml" freq="60" friendlyPos="x" id="18_e2det_-125_0" lane="-125_0" length="60" pos="109.47"/>
    <laneAreaDetector file="e2.output.xml" freq="60" friendlyPos="x" id="18_e2det_-125_1" lane="-125_1" length="60" pos="109.47"/>
    <laneAreaDetector file="e2.output.xml" freq="60" friendlyPos="x" id="18_e2det_-125_2" lane="-125_2" length="60" pos="109.47"/>
    <laneAreaDetector file="e2.output.xml" freq="60" friendlyPos="x" id="18_e2det_19_0" lane="19_0" length="60" pos="112.45000000000002"/>
    <laneAreaDetector file="e2.output.xml" freq="60" friendlyPos="x" id="24_e2det_-126_0" lane="-126_0" length="60" pos="142.5"/>
    <laneAreaDetector file="e2.output.xml" freq="60" friendlyPos="x" id="24_e2det_-126_1" lane="-126_1" length="60" pos="142.5"/>
    <laneAreaDetector file="e2.output.xml" freq="60" friendlyPos="x" id="24_e2det_-128_0" lane="-128_0" length="60" pos="27.809999999999995"/>
    <laneAreaDetector file="e2.output.xml" freq="60" friendlyPos="x" id="24_e2det_-128_1" lane="-128_1" length="60" pos="27.809999999999995"/>
    <laneAreaDetector file="e2.output.xml" freq="60" friendlyPos="x" id="24_e2det_-128_2" lane="-128_2" length="60" pos="27.809999999999995"/>
    <laneAreaDetector file="e2.output.xml" freq="60" friendlyPos="x" id="24_e2det_-138_0" lane="-138_0" length="60" pos="132.15"/>
    <laneAreaDetector file="e2.output.xml" freq="60" friendlyPos="x" id="24_e2det_-138_1" lane="-138_1" length="60" pos="132.15"/>
    <laneAreaDetector file="e2.output.xml" freq="60" friendlyPos="x" id="24_e2det_-210_0" lane="-210_0" length="60" pos="55.26"/>
    <laneAreaDetector file="e2.output.xml" freq="60" friendlyPos="x" id="24_e2det_25_0" lane="25_0" length="60" pos="140.32"/>
    <laneAreaDetector file="e2.output.xml" freq="60" friendlyPos="x" id="24_e2det_25_1" lane="25_1" length="60" pos="140.32"/>
    <laneAreaDetector file="e2.output.xml" freq="60" friendlyPos="x" id="24_e2det_25_2" lane="25_2" length="60" pos="140.32"/>
    <laneAreaDetector file="e2.output.xml" freq="60" friendlyPos="x" id="2_e2det_-13_0" lane="-13_0" length="60" pos="49.48"/>
    <laneAreaDetector file="e2.output.xml" freq="60" friendlyPos="x" id="2_e2det_-15_0" lane="-15_0" length="60" pos="72.69"/>
    <laneAreaDetector file="e2.output.xml" freq="60" friendlyPos="x" id="2_e2det_-15_1" lane="-15_1" length="60" pos="72.69"/>
    <laneAreaDetector file="e2.output.xml" freq="60" friendlyPos="x" id="2_e2det_3_0" lane="3_0" length="60" pos="152.59"/>
    <laneAreaDetector file="e2.output.xml" freq="60" friendlyPos="x" id="2_e2det_3_1" lane="3_1" length="60" pos="152.59"/>
    <laneAreaDetector file="e2.output.xml" freq="60" friendlyPos="x" id="2_e2det_3_2" lane="3_2" length="60" pos="152.59"/>
    <laneAreaDetector file="e2.output.xml" freq="60" friendlyPos="x" id="8_e2det_-17_0" lane="-17_0" length="60" pos="133.15"/>
    <laneAreaDetector file="e2.output.xml" freq="60" friendlyPos="x" id="8_e2det_-17_1" lane="-17_1" length="60" pos="133.15"/>
    <laneAreaDetector file="e2.output.xml" freq="60" friendlyPos="x" id="8_e2det_-17_2" lane="-17_2" length="60" pos="133.15"/>
    <laneAreaDetector file="e2.output.xml" freq="60" friendlyPos="x" id="8_e2det_-19_0" lane="-19_0" length="60" pos="112.45000000000002"/>
    <laneAreaDetector file="e2.output.xml" freq="60" friendlyPos="x" id="8_e2det_-25_0" lane="-25_0" length="60" pos="140.32"/>
    <laneAreaDetector file="e2.output.xml" freq="60" friendlyPos="x" id="8_e2det_-25_1" lane="-25_1" length="60" pos="140.32"/>
    <laneAreaDetector file="e2.output.xml" freq="60" friendlyPos="x" id="8_e2det_-25_2" lane="-25_2" length="60" pos="140.32"/>
    <laneAreaDetector file="e2.output.xml" freq="60" friendlyPos="x" id="8_e2det_9_0" lane="9_0" length="60" pos="121.36000000000001"/>
    <laneAreaDetector file="e2.output.xml" freq="60" friendlyPos="x" id="8_e2det_9_1" lane="9_1" length="60" pos="121.36000000000001"/>
    <laneAreaDetector file="e2.output.xml" freq="60" friendlyPos="x" id="8_e2det_9_2" lane="9_2" length="60" pos="121.36000000000001"/>
    <laneAreaDetector file="e2.output.xml" freq="60" friendlyPos="x" id="37_e2det_-313_0" lane="-313_0" length="60" pos="77.13"/>
    <laneAreaDetector file="e2.output.xml" freq="60" friendlyPos="x" id="37_e2det_-313_1" lane="-313_1" length="60" pos="77.13"/>
    <laneAreaDetector file="e2.output.xml" freq="60" friendlyPos="x" id="37_e2det_-313_2" lane="-313_2" length="60" pos="77.13"/>
    <laneAreaDetector file="e2.output.xml" freq="60" friendlyPos="x" id="37_e2det_-319_0" lane="-319_0" length="60" pos="143.8"/>
    <laneAreaDetector file="e2.output.xml" freq="60" friendlyPos="x" id="37_e2det_-325_0" lane="-325_0" length="60" pos="65.62"/>
    <laneAreaDetector file="e2.output.xml" freq="60" friendlyPos="x" id="37_e2det_-325_1" lane="-325_1" length="60" pos="65.62"/>
    <laneAreaDetector file="e2.output.xml" freq="60" friendlyPos="x" id="37_e2det_117_0" lane="117_0" length="60" pos="39.4"/>
    <laneAreaDetector file="e2.output.xml" freq="60" friendlyPos="x" id="37_e2det_117_1" lane="117_1" length="60" pos="39.4"/>
    <laneAreaDetector file="e2.output.xml" freq="60" friendlyPos="x" id="37_e2det_117_2" lane="117_2" length="60" pos="39.4"/>
    <laneAreaDetector file="e2.output.xml" freq="60" friendlyPos="x" id="37_e2det_38_0" lane="38_0" length="60" pos="100.32"/>
    <laneAreaDetector file="e2.output.xml" freq="60" friendlyPos="x" id="37_e2det_38_1" lane="38_1" length="60" pos="100.32"/>
    <laneAreaDetector file="e2.output.xml" freq="60" friendlyPos="x" id="63_e2det_-326_0" lane="-326_0" length="60" pos="53.089999999999996"/>
    <laneAreaDetector file="e2.output.xml" freq="60" friendlyPos="x" id="63_e2det_-326_1" lane="-326_1" length="60" pos="53.089999999999996"/>
    <laneAreaDetector file="e2.output.xml" freq="60" friendlyPos="x" id="63_e2det_121_0" lane="121_0" length="60" pos="132.83"/>
    <laneAreaDetector file="e2.output.xml" freq="60" friendlyPos="x" id="63_e2det_121_1" lane="121_1" length="60" pos="132.83"/>
    <laneAreaDetector file="e2.output.xml" freq="60" friendlyPos="x" id="63_e2det_64_0" lane="64_0" length="60" pos="68.5"/>
    <laneAreaDetector file="e2.output.xml" freq="60" friendlyPos="x" id="63_e2det_64_1" lane="64_1" length="60" pos="68.5"/>
    <laneAreaDetector file="e2.output.xml" freq="60" friendlyPos="x" id="118_e2det_-330_0" lane="-330_0" length="60" pos="148.03"/>
    <laneAreaDetector file="e2.output.xml" freq="60" friendlyPos="x" id="118_e2det_-330_1" lane="-330_1" length="60" pos="148.03"/>
    <laneAreaDetector file="e2.output.xml" freq="60" friendlyPos="x" id="118_e2det_-330_2" lane="-330_2" length="60" pos="148.03"/>
    <laneAreaDetector file="e2.output.xml" freq="60" friendlyPos="x" id="118_e2det_-332_0" lane="-332_0" length="60" pos="35.68"/>
    <laneAreaDetector file="e2.output.xml" freq="60" friendlyPos="x" id="118_e2det_-332_1" lane="-332_1" length="60" pos="35.68"/>
    <laneAreaDetector file="e2.output.xml" freq="60" friendlyPos="x" id="118_e2det_119_0" lane="119_0" length="60" pos="46.43"/>
    <laneAreaDetector file="e2.output.xml" freq="60" friendlyPos="x" id="118_e2det_119_1" lane="119_1" length="60" pos="46.43"/>
    <laneAreaDetector file="e2.output.xml" freq="60" friendlyPos="x" id="118_e2det_119_2" lane="119_2" length="60" pos="46.43"/>
    <laneAreaDetector file="e2.output.xml" freq="60" friendlyPos="x" id="6_e2det_-333_0" lane="-333_0" length="60" pos="94.91"/>
    <laneAreaDetector file="e2.output.xml" freq="60" friendlyPos="x" id="6_e2det_-356_0" lane="-356_0" length="60" pos="93.28"/>
    <laneAreaDetector file="e2.output.xml" freq="60" friendlyPos="x" id="6_e2det_-356_1" lane="-356_1" length="60" pos="93.28"/>
    <laneAreaDetector file="e2.output.xml" freq="60" friendlyPos="x" id="6_e2det_7_0" lane="7_0" length="60" pos="125.77000000000001"/>
    <laneAreaDetector file="e2.output.xml" freq="60" friendlyPos="x" id="6_e2det_7_1" lane="7_1" length="60" pos="125.77000000000001"/>
    <laneAreaDetector file="e2.output.xml" freq="60" friendlyPos="x" id="122_e2det_-336_0" lane="-336_0" length="60" pos="29.46999999999999"/>
    <laneAreaDetector file="e2.output.xml" freq="60" friendlyPos="x" id="122_e2det_-338_0" lane="-338_0" length="60" pos="48.96"/>
    <laneAreaDetector file="e2.output.xml" freq="60" friendlyPos="x" id="122_e2det_123_0" lane="123_0" length="60" pos="79.95000000000002"/>
    <laneAreaDetector file="e2.output.xml" freq="60" friendlyPos="x" id="122_e2det_123_2" lane="123_2" length="60" pos="79.95000000000002"/>
    <laneAreaDetector file="e2.output.xml" freq="60" friendlyPos="x" id="124_e2det_-344_0" lane="-344_0" length="60" pos="48.96999999999999"/>
    <laneAreaDetector file="e2.output.xml" freq="60" friendlyPos="x" id="124_e2det_-344_1" lane="-344_1" length="60" pos="48.96999999999999"/>
    <laneAreaDetector file="e2.output.xml" freq="60" friendlyPos="x" id="124_e2det_-344_2" lane="-344_2" length="60" pos="48.96999999999999"/>
    <laneAreaDetector file="e2.output.xml" freq="60" friendlyPos="x" id="124_e2det_125_0" lane="125_0" length="60" pos="109.47"/>
    <laneAreaDetector file="e2.output.xml" freq="60" friendlyPos="x" id="124_e2det_125_1" lane="125_1" length="60" pos="109.47"/>
    <laneAreaDetector file="e2.output.xml" freq="60" friendlyPos="x" id="124_e2det_125_2" lane="125_2" length="60" pos="109.47"/>
    <laneAreaDetector file="e2.output.xml" freq="60" friendlyPos="x" id="124_e2det_126_0" lane="126_0" length="60" pos="142.5"/>
    <laneAreaDetector file="e2.output.xml" freq="60" friendlyPos="x" id="124_e2det_126_1" lane="126_1" length="60" pos="142.5"/>
    <laneAreaDetector file="e2.output.xml" freq="60" friendlyPos="x" id="124_e2det_570_0" lane="570_0" length="60" pos="62.63"/>
    <laneAreaDetector file="e2.output.xml" freq="60" friendlyPos="x" id="137_e2det_-348_0" lane="-348_0" length="60" pos="80.55000000000001"/>
    <laneAreaDetector file="e2.output.xml" freq="60" friendlyPos="x" id="137_e2det_138_0" lane="138_0" length="60" pos="132.15"/>
    <laneAreaDetector file="e2.output.xml" freq="60" friendlyPos="x" id="137_e2det_138_1" lane="138_1" length="60" pos="132.15"/>
    <laneAreaDetector file="e2.output.xml" freq="60" friendlyPos="x" id="137_e2det_333_0" lane="333_0" length="60" pos="94.91"/>
    <laneAreaDetector file="e2.output.xml" freq="60" friendlyPos="x" id="209_e2det_-349_0" lane="-349_0" length="60" pos="94.88"/>
    <laneAreaDetector file="e2.output.xml" freq="60" friendlyPos="x" id="209_e2det_-349_1" lane="-349_1" length="60" pos="94.88"/>
    <laneAreaDetector file="e2.output.xml" freq="60" friendlyPos="x" id="209_e2det_-349_2" lane="-349_2" length="60" pos="94.88"/>
    <laneAreaDetector file="e2.output.xml" freq="60" friendlyPos="x" id="209_e2det_-585_0" lane="-585_0" length="60" pos="70.62"/>
    <laneAreaDetector file="e2.output.xml" freq="60" friendlyPos="x" id="209_e2det_-585_1" lane="-585_1" length="60" pos="70.62"/>
    <laneAreaDetector file="e2.output.xml" freq="60" friendlyPos="x" id="209_e2det_210_0" lane="210_0" length="60" pos="55.26"/>
    <laneAreaDetector file="e2.output.xml" freq="60" friendlyPos="x" id="209_e2det_381_0" lane="381_0" length="60" pos="32.43"/>
    <laneAreaDetector file="e2.output.xml" freq="60" friendlyPos="x" id="209_e2det_381_1" lane="381_1" length="60" pos="32.43"/>
    <laneAreaDetector file="e2.output.xml" freq="60" friendlyPos="x" id="209_e2det_381_2" lane="381_2" length="60" pos="32.43"/>
    <laneAreaDetector file="e2.output.xml" freq="60" friendlyPos="x" id="335_e2det_-361_0" lane="-361_0" length="60" pos="88.77000000000001"/>
    <laneAreaDetector file="e2.output.xml" freq="60" friendlyPos="x" id="335_e2det_-361_1" lane="-361_1" length="60" pos="88.77000000000001"/>
    <laneAreaDetector file="e2.output.xml" freq="60" friendlyPos="x" id="335_e2det_-504_0" lane="-504_0" length="60" pos="160.73000000000002"/>
    <laneAreaDetector file="e2.output.xml" freq="60" friendlyPos="x" id="335_e2det_336_0" lane="336_0" length="60" pos="29.46999999999999"/>
    <laneAreaDetector file="e2.output.xml" freq="60" friendlyPos="x" id="343_e2det_-365_0" lane="-365_0" length="60" pos="133.56"/>
    <laneAreaDetector file="e2.output.xml" freq="60" friendlyPos="x" id="343_e2det_-379_0" lane="-379_0" length="60" pos="82.27000000000001"/>
    <laneAreaDetector file="e2.output.xml" freq="60" friendlyPos="x" id="343_e2det_-379_1" lane="-379_1" length="60" pos="82.27000000000001"/>
    <laneAreaDetector file="e2.output.xml" freq="60" friendlyPos="x" id="343_e2det_-379_2" lane="-379_2" length="60" pos="82.27000000000001"/>
    <laneAreaDetector file="e2.output.xml" freq="60" friendlyPos="x" id="343_e2det_344_0" lane="344_0" length="60" pos="48.96999999999999"/>
    <laneAreaDetector file="e2.output.xml" freq="60" friendlyPos="x" id="343_e2det_344_1" lane="344_1" length="60" pos="48.96999999999999"/>
    <laneAreaDetector file="e2.output.xml" freq="60" friendlyPos="x" id="343_e2det_344_2" lane="344_2" length="60" pos="48.96999999999999"/>
    <laneAreaDetector file="e2.output.xml" freq="60" friendlyPos="x" id="343_e2det_349_0" lane="349_0" length="60" pos="94.88"/>
    <laneAreaDetector file="e2.output.xml" freq="60" friendlyPos="x" id="343_e2det_349_1" lane="349_1" length="60" pos="94.88"/>
    <laneAreaDetector file="e2.output.xml" freq="60" friendlyPos="x" id="343_e2det_349_2" lane="349_2" length="60" pos="94.88"/>
    <laneAreaDetector file="e2.output.xml" freq="60" friendlyPos="x" id="127_e2det_-381_0" lane="-381_0" length="60" pos="32.43"/>
    <laneAreaDetector file="e2.output.xml" freq="60" friendlyPos="x" id="127_e2det_-381_1" lane="-381_1" length="60" pos="32.43"/>
    <laneAreaDetector file="e2.output.xml" freq="60" friendlyPos="x" id="127_e2det_-381_2" lane="-381_2" length="60" pos="32.43"/>
    <laneAreaDetector file="e2.output.xml" freq="60" friendlyPos="x" id="127_e2det_-383_0" lane="-383_0" length="60" pos="84.52000000000001"/>
    <laneAreaDetector file="e2.output.xml" freq="60" friendlyPos="x" id="127_e2det_-383_1" lane="-383_1" length="60" pos="84.52000000000001"/>
    <laneAreaDetector file="e2.output.xml" freq="60" friendlyPos="x" id="127_e2det_-383_2" lane="-383_2" length="60" pos="84.52000000000001"/>
    <laneAreaDetector file="e2.output.xml" freq="60" friendlyPos="x" id="127_e2det_128_0" lane="128_0" length="60" pos="27.809999999999995"/>
    <laneAreaDetector file="e2.output.xml" freq="60" friendlyPos="x" id="127_e2det_128_1" lane="128_1" length="60" pos="27.809999999999995"/>
    <laneAreaDetector file="e2.output.xml" freq="60" friendlyPos="x" id="127_e2det_128_2" lane="128_2" length="60" pos="27.809999999999995"/>
    <laneAreaDetector file="e2.output.xml" freq="60" friendlyPos="x" id="360_e2det_-492_0" lane="-492_0" length="60" pos="160.24"/>
    <laneAreaDetector file="e2.output.xml" freq="60" friendlyPos="x" id="360_e2det_-492_1" lane="-492_1" length="60" pos="160.24"/>
    <laneAreaDetector file="e2.output.xml" freq="60" friendlyPos="x" id="360_e2det_-496_0" lane="-496_0" length="60" pos="55.85999999999999"/>
    <laneAreaDetector file="e2.output.xml" freq="60" friendlyPos="x" id="360_e2det_-496_1" lane="-496_1" length="60" pos="55.85999999999999"/>
    <laneAreaDetector file="e2.output.xml" freq="60" friendlyPos="x" id="360_e2det_361_0" lane="361_0" length="60" pos="88.77000000000001"/>
    <laneAreaDetector file="e2.output.xml" freq="60" friendlyPos="x" id="360_e2det_361_1" lane="361_1" length="60" pos="88.77000000000001"/>
    <laneAreaDetector file="e2.output.xml" freq="60" friendlyPos="x" id="337_e2det_-505_0" lane="-505_0" length="60" pos="117.1"/>
    <laneAreaDetector file="e2.output.xml" freq="60" friendlyPos="x" id="337_e2det_-517_0" lane="-517_0" length="60" pos="91.81"/>
    <laneAreaDetector file="e2.output.xml" freq="60" friendlyPos="x" id="337_e2det_-517_1" lane="-517_1" length="60" pos="91.81"/>
    <laneAreaDetector file="e2.output.xml" freq="60" friendlyPos="x" id="337_e2det_-523_0" lane="-523_0" length="60" pos="132.97"/>
    <laneAreaDetector file="e2.output.xml" freq="60" friendlyPos="x" id="337_e2det_-523_1" lane="-523_1" length="60" pos="132.97"/>
    <laneAreaDetector file="e2.output.xml" freq="60" friendlyPos="x" id="337_e2det_-523_2" lane="-523_2" length="60" pos="132.97"/>
    <laneAreaDetector file="e2.output.xml" freq="60" friendlyPos="x" id="337_e2det_338_0" lane="338_0" length="60" pos="48.96"/>
    <laneAreaDetector file="e2.output.xml" freq="60" friendlyPos="x" id="364_e2det_-533_0" lane="-533_0" length="60" pos="55.54"/>
    <laneAreaDetector file="e2.output.xml" freq="60" friendlyPos="x" id="364_e2det_-535_0" lane="-535_0" length="60" pos="112.91"/>
    <laneAreaDetector file="e2.output.xml" freq="60" friendlyPos="x" id="364_e2det_-569_0" lane="-569_0" length="60" pos="125.12"/>
    <laneAreaDetector file="e2.output.xml" freq="60" friendlyPos="x" id="364_e2det_-569_1" lane="-569_1" length="60" pos="125.12"/>
    <laneAreaDetector file="e2.output.xml" freq="60" friendlyPos="x" id="364_e2det_365_0" lane="365_0" length="60" pos="133.56"/>
    <laneAreaDetector file="e2.output.xml" freq="60" friendlyPos="x" id="378_e2det_-570_0" lane="-570_0" length="60" pos="62.63"/>
    <laneAreaDetector file="e2.output.xml" freq="60" friendlyPos="x" id="378_e2det_379_0" lane="379_0" length="60" pos="82.27000000000001"/>
    <laneAreaDetector file="e2.output.xml" freq="60" friendlyPos="x" id="378_e2det_379_1" lane="379_1" length="60" pos="82.27000000000001"/>
    <laneAreaDetector file="e2.output.xml" freq="60" friendlyPos="x" id="378_e2det_492_0" lane="492_0" length="60" pos="160.24"/>
    <laneAreaDetector file="e2.output.xml" freq="60" friendlyPos="x" id="378_e2det_492_1" lane="492_1" length="60" pos="160.24"/>
    <laneAreaDetector file="e2.output.xml" freq="60" friendlyPos="x" id="382_e2det_-577_0" lane="-577_0" length="60" pos="123.17000000000002"/>
    <laneAreaDetector file="e2.output.xml" freq="60" friendlyPos="x" id="382_e2det_-577_1" lane="-577_1" length="60" pos="123.17000000000002"/>
    <laneAreaDetector file="e2.output.xml" freq="60" friendlyPos="x" id="382_e2det_-577_2" lane="-577_2" length="60" pos="123.17000000000002"/>
    <laneAreaDetector file="e2.output.xml" freq="60" friendlyPos="x" id="382_e2det_-579_0" lane="-579_0" length="60" pos="91.62"/>
    <laneAreaDetector file="e2.output.xml" freq="60" friendlyPos="x" id="382_e2det_-579_1" lane="-579_1" length="60" pos="91.62"/>
    <laneAreaDetector file="e2.output.xml" freq="60" friendlyPos="x" id="382_e2det_-579_2" lane="-579_2" length="60" pos="91.62"/>
    <laneAreaDetector file="e2.output.xml" freq="60" friendlyPos="x" id="382_e2det_383_0" lane="383_0" length="60" pos="84.52000000000001"/>
    <laneAreaDetector file="e2.output.xml" freq="60" friendlyPos="x" id="382_e2det_383_1" lane="383_1" length="60" pos="84.52000000000001"/>
    <laneAreaDetector file="e2.output.xml" freq="60" friendlyPos="x" id="382_e2det_383_2" lane="383_2" length="60" pos="84.52000000000001"/>
    <laneAreaDetector file="e2.output.xml" freq="60" friendlyPos="x" id="324_e2det_-588_0" lane="-588_0" length="60" pos="62.99"/>
    <laneAreaDetector file="e2.output.xml" freq="60" friendlyPos="x" id="324_e2det_-588_1" lane="-588_1" length="60" pos="62.99"/>
    <laneAreaDetector file="e2.output.xml" freq="60" friendlyPos="x" id="324_e2det_-588_2" lane="-588_2" length="60" pos="62.99"/>
    <laneAreaDetector file="e2.output.xml" freq="60" friendlyPos="x" id="324_e2det_-589_0" lane="-589_0" length="60" pos="148.9"/>
    <laneAreaDetector file="e2.output.xml" freq="60" friendlyPos="x" id="324_e2det_325_0" lane="325_0" length="60" pos="65.62"/>
    <laneAreaDetector file="e2.output.xml" freq="60" friendlyPos="x" id="324_e2det_325_1" lane="325_1" length="60" pos="65.62"/>
    <laneAreaDetector file="e2.output.xml" freq="60" friendlyPos="x" id="331_e2det_-592_0" lane="-592_0" length="60" pos="64.42"/>
    <laneAreaDetector file="e2.output.xml" freq="60" friendlyPos="x" id="331_e2det_-592_1" lane="-592_1" length="60" pos="64.42"/>
    <laneAreaDetector file="e2.output.xml" freq="60" friendlyPos="x" id="331_e2det_332_0" lane="332_0" length="60" pos="35.68"/>
    <laneAreaDetector file="e2.output.xml" freq="60" friendlyPos="x" id="331_e2det_332_1" lane="332_1" length="60" pos="35.68"/>
    <laneAreaDetector file="e2.output.xml" freq="60" friendlyPos="x" id="503_e2det_-597_0" lane="-597_0" length="60" pos="36.77"/>
    <laneAreaDetector file="e2.output.xml" freq="60" friendlyPos="x" id="503_e2det_-597_1" lane="-597_1" length="60" pos="36.77"/>
    <laneAreaDetector file="e2.output.xml" freq="60" friendlyPos="x" id="503_e2det_504_0" lane="504_0" length="60" pos="160.73000000000002"/>
    <laneAreaDetector file="e2.output.xml" freq="60" friendlyPos="x" id="503_e2det_505_0" lane="505_0" length="60" pos="117.1"/>
    <laneAreaDetector file="e2.output.xml" freq="60" friendlyPos="x" id="534_e2det_-601_0" lane="-601_0" length="60" pos="119.34"/>
    <laneAreaDetector file="e2.output.xml" freq="60" friendlyPos="x" id="534_e2det_535_0" lane="535_0" length="60" pos="112.91"/>
    <laneAreaDetector file="e2.output.xml" freq="60" friendlyPos="x" id="576_e2det_-608_0" lane="-608_0" length="60" pos="106.17000000000002"/>
    <laneAreaDetector file="e2.output.xml" freq="60" friendlyPos="x" id="576_e2det_-608_1" lane="-608_1" length="60" pos="106.17000000000002"/>
    <laneAreaDetector file="e2.output.xml" freq="60" friendlyPos="x" id="576_e2det_-608_2" lane="-608_2" length="60" pos="106.17000000000002"/>
    <laneAreaDetector file="e2.output.xml" freq="60" friendlyPos="x" id="576_e2det_-612_0" lane="-612_0" length="60" pos="126.34"/>
    <laneAreaDetector file="e2.output.xml" freq="60" friendlyPos="x" id="576_e2det_-612_1" lane="-612_1" length="60" pos="126.34"/>
    <laneAreaDetector file="e2.output.xml" freq="60" friendlyPos="x" id="576_e2det_577_0" lane="577_0" length="60" pos="123.17000000000002"/>
    <laneAreaDetector file="e2.output.xml" freq="60" friendlyPos="x" id="576_e2det_577_1" lane="577_1" length="60" pos="123.17000000000002"/>
    <laneAreaDetector file="e2.output.xml" freq="60" friendlyPos="x" id="576_e2det_577_2" lane="577_2" length="60" pos="123.17000000000002"/>
    <laneAreaDetector file="e2.output.xml" freq="60" friendlyPos="x" id="578_e2det_-613_0" lane="-613_0" length="60" pos="135.99"/>
    <laneAreaDetector file="e2.output.xml" freq="60" friendlyPos="x" id="578_e2det_-613_1" lane="-613_1" length="60" pos="135.99"/>
    <laneAreaDetector file="e2.output.xml" freq="60" friendlyPos="x" id="578_e2det_-613_2" lane="-613_2" length="60" pos="135.99"/>
    <laneAreaDetector file="e2.output.xml" freq="60" friendlyPos="x" id="578_e2det_-614_0" lane="-614_0" length="60" pos="40.199999999999996"/>
    <laneAreaDetector file="e2.output.xml" freq="60" friendlyPos="x" id="578_e2det_-614_1" lane="-614_1" length="60" pos="40.199999999999996"/>
    <laneAreaDetector file="e2.output.xml" freq="60" friendlyPos="x" id="578_e2det_-614_2" lane="-614_2" length="60" pos="40.199999999999996"/>
    <laneAreaDetector file="e2.output.xml" freq="60" friendlyPos="x" id="578_e2det_-618_0" lane="-618_0" length="60" pos="84.86000000000001"/>
    <laneAreaDetector file="e2.output.xml" freq="60" friendlyPos="x" id="578_e2det_-618_1" lane="-618_1" length="60" pos="84.86000000000001"/>
    <laneAreaDetector file="e2.output.xml" freq="60" friendlyPos="x" id="578_e2det_579_0" lane="579_0" length="60" pos="91.62"/>
    <laneAreaDetector file="e2.output.xml" freq="60" friendlyPos="x" id="578_e2det_579_1" lane="579_1" length="60" pos="91.62"/>
    <laneAreaDetector file="e2.output.xml" freq="60" friendlyPos="x" id="578_e2det_579_2" lane="579_2" length="60" pos="91.62"/>
    <laneAreaDetector file="e2.output.xml" freq="60" friendlyPos="x" id="318_e2det_-621_0" lane="-621_0" length="60" pos="36.96999999999999"/>
    <laneAreaDetector file="e2.output.xml" freq="60" friendlyPos="x" id="318_e2det_-621_1" lane="-621_1" length="60" pos="36.96999999999999"/>
    <laneAreaDetector file="e2.output.xml" freq="60" friendlyPos="x" id="318_e2det_-623_0" lane="-623_0" length="60" pos="107.93"/>
    <laneAreaDetector file="e2.output.xml" freq="60" friendlyPos="x" id="318_e2det_-625_0" lane="-625_0" length="60" pos="79.02000000000001"/>
    <laneAreaDetector file="e2.output.xml" freq="60" friendlyPos="x" id="318_e2det_-639_0" lane="-639_0" length="60" pos="133.14000000000001"/>
    <laneAreaDetector file="e2.output.xml" freq="60" friendlyPos="x" id="318_e2det_-639_1" lane="-639_1" length="60" pos="133.14000000000001"/>
    <laneAreaDetector file="e2.output.xml" freq="60" friendlyPos="x" id="318_e2det_-639_2" lane="-639_2" length="60" pos="133.14000000000001"/>
    <laneAreaDetector file="e2.output.xml" freq="60" friendlyPos="x" id="318_e2det_319_0" lane="319_0" length="60" pos="143.8"/>
    <laneAreaDetector file="e2.output.xml" freq="60" friendlyPos="x" id="591_e2det_-642_0" lane="-642_0" length="60" pos="160.61"/>
    <laneAreaDetector file="e2.output.xml" freq="60" friendlyPos="x" id="591_e2det_-642_1" lane="-642_1" length="60" pos="160.61"/>
    <laneAreaDetector file="e2.output.xml" freq="60" friendlyPos="x" id="591_e2det_592_0" lane="592_0" length="60" pos="64.42"/>
    <laneAreaDetector file="e2.output.xml" freq="60" friendlyPos="x" id="591_e2det_592_1" lane="592_1" length="60" pos="64.42"/>
    <laneAreaDetector file="e2.output.xml" freq="60" friendlyPos="x" id="115_e2det_116_0" lane="116_0" length="60" pos="83.28"/>
    <laneAreaDetector file="e2.output.xml" freq="60" friendlyPos="x" id="115_e2det_313_0" lane="313_0" length="60" pos="77.13"/>